* NGSPICE file created from tt_mux.ext - technology: sky130A

* Black-box entry subcircuit for sky130_fd_sc_hd__tapvpwrvgnd_1 abstract view
.subckt sky130_fd_sc_hd__tapvpwrvgnd_1 VGND VPWR
.ends

* Black-box entry subcircuit for sky130_ef_sc_hd__decap_12 abstract view
.subckt sky130_ef_sc_hd__decap_12 VGND VNB VPB VPWR
.ends

* Black-box entry subcircuit for sky130_fd_sc_hd__decap_4 abstract view
.subckt sky130_fd_sc_hd__decap_4 VGND VNB VPB VPWR
.ends

* Black-box entry subcircuit for sky130_fd_sc_hd__decap_6 abstract view
.subckt sky130_fd_sc_hd__decap_6 VGND VNB VPB VPWR
.ends

* Black-box entry subcircuit for sky130_fd_sc_hd__fill_1 abstract view
.subckt sky130_fd_sc_hd__fill_1 VGND VNB VPB VPWR
.ends

* Black-box entry subcircuit for sky130_fd_sc_hd__and2_1 abstract view
.subckt sky130_fd_sc_hd__and2_1 A B VGND VNB VPB VPWR X
.ends

* Black-box entry subcircuit for sky130_fd_sc_hd__diode_2 abstract view
.subckt sky130_fd_sc_hd__diode_2 DIODE VGND VNB VPB VPWR
.ends

* Black-box entry subcircuit for sky130_fd_sc_hd__buf_2 abstract view
.subckt sky130_fd_sc_hd__buf_2 A VGND VNB VPB VPWR X
.ends

* Black-box entry subcircuit for sky130_fd_sc_hd__fill_2 abstract view
.subckt sky130_fd_sc_hd__fill_2 VGND VNB VPB VPWR
.ends

* Black-box entry subcircuit for sky130_fd_sc_hd__decap_3 abstract view
.subckt sky130_fd_sc_hd__decap_3 VGND VNB VPB VPWR
.ends

* Black-box entry subcircuit for sky130_fd_sc_hd__mux4_1 abstract view
.subckt sky130_fd_sc_hd__mux4_1 A0 A1 A2 A3 S0 S1 VGND VNB VPB VPWR X
.ends

* Black-box entry subcircuit for sky130_fd_sc_hd__decap_8 abstract view
.subckt sky130_fd_sc_hd__decap_8 VGND VNB VPB VPWR
.ends

* Black-box entry subcircuit for sky130_fd_sc_hd__clkbuf_1 abstract view
.subckt sky130_fd_sc_hd__clkbuf_1 A VGND VNB VPB VPWR X
.ends

* Black-box entry subcircuit for sky130_fd_sc_hd__clkbuf_4 abstract view
.subckt sky130_fd_sc_hd__clkbuf_4 A VGND VNB VPB VPWR X
.ends

* Black-box entry subcircuit for sky130_fd_sc_hd__buf_8 abstract view
.subckt sky130_fd_sc_hd__buf_8 A VGND VNB VPB VPWR X
.ends

* Black-box entry subcircuit for sky130_fd_sc_hd__mux4_2 abstract view
.subckt sky130_fd_sc_hd__mux4_2 A0 A1 A2 A3 S0 S1 VGND VNB VPB VPWR X
.ends

* Black-box entry subcircuit for sky130_fd_sc_hd__clkbuf_2 abstract view
.subckt sky130_fd_sc_hd__clkbuf_2 A VGND VNB VPB VPWR X
.ends

* Black-box entry subcircuit for sky130_fd_sc_hd__dlymetal6s2s_1 abstract view
.subckt sky130_fd_sc_hd__dlymetal6s2s_1 A VGND VNB VPB VPWR X
.ends

* Black-box entry subcircuit for sky130_fd_sc_hd__ebufn_8 abstract view
.subckt sky130_fd_sc_hd__ebufn_8 A TE_B VGND VNB VPB VPWR Z
.ends

* Black-box entry subcircuit for sky130_fd_sc_hd__ebufn_1 abstract view
.subckt sky130_fd_sc_hd__ebufn_1 A TE_B VGND VNB VPB VPWR Z
.ends

* Black-box entry subcircuit for sky130_fd_sc_hd__and3_1 abstract view
.subckt sky130_fd_sc_hd__and3_1 A B C VGND VNB VPB VPWR X
.ends

* Black-box entry subcircuit for sky130_fd_sc_hd__buf_6 abstract view
.subckt sky130_fd_sc_hd__buf_6 A VGND VNB VPB VPWR X
.ends

* Black-box entry subcircuit for sky130_fd_sc_hd__a221oi_1 abstract view
.subckt sky130_fd_sc_hd__a221oi_1 A1 A2 B1 B2 C1 VGND VNB VPB VPWR Y
.ends

* Black-box entry subcircuit for sky130_fd_sc_hd__buf_4 abstract view
.subckt sky130_fd_sc_hd__buf_4 A VGND VNB VPB VPWR X
.ends

* Black-box entry subcircuit for sky130_fd_sc_hd__conb_1 abstract view
.subckt sky130_fd_sc_hd__conb_1 VGND VNB VPB VPWR HI LO
.ends

* Black-box entry subcircuit for sky130_fd_sc_hd__ebufn_2 abstract view
.subckt sky130_fd_sc_hd__ebufn_2 A TE_B VGND VNB VPB VPWR Z
.ends

* Black-box entry subcircuit for sky130_fd_sc_hd__buf_12 abstract view
.subckt sky130_fd_sc_hd__buf_12 A VGND VNB VPB VPWR X
.ends

* Black-box entry subcircuit for sky130_fd_sc_hd__clkinv_4 abstract view
.subckt sky130_fd_sc_hd__clkinv_4 A VGND VNB VPB VPWR Y
.ends

* Black-box entry subcircuit for sky130_fd_sc_hd__and3b_1 abstract view
.subckt sky130_fd_sc_hd__and3b_1 A_N B C VGND VNB VPB VPWR X
.ends

* Black-box entry subcircuit for sky130_fd_sc_hd__inv_2 abstract view
.subckt sky130_fd_sc_hd__inv_2 A VGND VNB VPB VPWR Y
.ends

* Black-box entry subcircuit for sky130_fd_sc_hd__clkinv_2 abstract view
.subckt sky130_fd_sc_hd__clkinv_2 A VGND VNB VPB VPWR Y
.ends

* Black-box entry subcircuit for sky130_fd_sc_hd__clkbuf_8 abstract view
.subckt sky130_fd_sc_hd__clkbuf_8 A VGND VNB VPB VPWR X
.ends

* Black-box entry subcircuit for sky130_fd_sc_hd__xor2_1 abstract view
.subckt sky130_fd_sc_hd__xor2_1 A B VGND VNB VPB VPWR X
.ends

* Black-box entry subcircuit for sky130_fd_sc_hd__and4bb_1 abstract view
.subckt sky130_fd_sc_hd__and4bb_1 A_N B_N C D VGND VNB VPB VPWR X
.ends

* Black-box entry subcircuit for sky130_fd_sc_hd__o22a_1 abstract view
.subckt sky130_fd_sc_hd__o22a_1 A1 A2 B1 B2 VGND VNB VPB VPWR X
.ends

* Black-box entry subcircuit for sky130_fd_sc_hd__nor2_1 abstract view
.subckt sky130_fd_sc_hd__nor2_1 A B VGND VNB VPB VPWR Y
.ends

* Black-box entry subcircuit for sky130_fd_sc_hd__nor3b_2 abstract view
.subckt sky130_fd_sc_hd__nor3b_2 A B C_N VGND VNB VPB VPWR Y
.ends

* Black-box entry subcircuit for sky130_fd_sc_hd__nor3b_4 abstract view
.subckt sky130_fd_sc_hd__nor3b_4 A B C_N VGND VNB VPB VPWR Y
.ends

* Black-box entry subcircuit for sky130_fd_sc_hd__nor3_4 abstract view
.subckt sky130_fd_sc_hd__nor3_4 A B C VGND VNB VPB VPWR Y
.ends

* Black-box entry subcircuit for sky130_fd_sc_hd__and4bb_2 abstract view
.subckt sky130_fd_sc_hd__and4bb_2 A_N B_N C D VGND VNB VPB VPWR X
.ends

.subckt tt_mux addr[0] addr[1] addr[2] addr[3] addr[4] k_one k_zero spine_iw[0] spine_iw[10]
+ spine_iw[11] spine_iw[12] spine_iw[13] spine_iw[14] spine_iw[15] spine_iw[16] spine_iw[17]
+ spine_iw[18] spine_iw[19] spine_iw[1] spine_iw[20] spine_iw[21] spine_iw[22] spine_iw[23]
+ spine_iw[24] spine_iw[25] spine_iw[26] spine_iw[27] spine_iw[28] spine_iw[29] spine_iw[2]
+ spine_iw[30] spine_iw[3] spine_iw[4] spine_iw[5] spine_iw[6] spine_iw[7] spine_iw[8]
+ spine_iw[9] spine_ow[0] spine_ow[10] spine_ow[11] spine_ow[12] spine_ow[13] spine_ow[14]
+ spine_ow[15] spine_ow[16] spine_ow[17] spine_ow[18] spine_ow[19] spine_ow[1] spine_ow[20]
+ spine_ow[21] spine_ow[22] spine_ow[23] spine_ow[24] spine_ow[25] spine_ow[2] spine_ow[3]
+ spine_ow[4] spine_ow[5] spine_ow[6] spine_ow[7] spine_ow[8] spine_ow[9] um_ena[0]
+ um_ena[10] um_ena[11] um_ena[12] um_ena[13] um_ena[14] um_ena[15] um_ena[1] um_ena[2]
+ um_ena[3] um_ena[4] um_ena[5] um_ena[6] um_ena[7] um_ena[8] um_ena[9] um_iw[0] um_iw[100]
+ um_iw[101] um_iw[102] um_iw[103] um_iw[104] um_iw[105] um_iw[106] um_iw[107] um_iw[108]
+ um_iw[109] um_iw[10] um_iw[110] um_iw[111] um_iw[112] um_iw[113] um_iw[114] um_iw[115]
+ um_iw[116] um_iw[117] um_iw[118] um_iw[119] um_iw[11] um_iw[120] um_iw[121] um_iw[122]
+ um_iw[123] um_iw[124] um_iw[125] um_iw[126] um_iw[127] um_iw[128] um_iw[129] um_iw[12]
+ um_iw[130] um_iw[131] um_iw[132] um_iw[133] um_iw[134] um_iw[135] um_iw[136] um_iw[137]
+ um_iw[138] um_iw[139] um_iw[13] um_iw[140] um_iw[141] um_iw[142] um_iw[143] um_iw[144]
+ um_iw[145] um_iw[146] um_iw[147] um_iw[148] um_iw[149] um_iw[14] um_iw[150] um_iw[151]
+ um_iw[152] um_iw[153] um_iw[154] um_iw[155] um_iw[156] um_iw[157] um_iw[158] um_iw[159]
+ um_iw[15] um_iw[160] um_iw[161] um_iw[162] um_iw[163] um_iw[164] um_iw[165] um_iw[166]
+ um_iw[167] um_iw[168] um_iw[169] um_iw[16] um_iw[170] um_iw[171] um_iw[172] um_iw[173]
+ um_iw[174] um_iw[175] um_iw[176] um_iw[177] um_iw[178] um_iw[179] um_iw[17] um_iw[180]
+ um_iw[181] um_iw[182] um_iw[183] um_iw[184] um_iw[185] um_iw[186] um_iw[187] um_iw[188]
+ um_iw[189] um_iw[18] um_iw[190] um_iw[191] um_iw[192] um_iw[193] um_iw[194] um_iw[195]
+ um_iw[196] um_iw[197] um_iw[198] um_iw[199] um_iw[19] um_iw[1] um_iw[200] um_iw[201]
+ um_iw[202] um_iw[203] um_iw[204] um_iw[205] um_iw[206] um_iw[207] um_iw[208] um_iw[209]
+ um_iw[20] um_iw[210] um_iw[211] um_iw[212] um_iw[213] um_iw[214] um_iw[215] um_iw[216]
+ um_iw[217] um_iw[218] um_iw[219] um_iw[21] um_iw[220] um_iw[221] um_iw[222] um_iw[223]
+ um_iw[224] um_iw[225] um_iw[226] um_iw[227] um_iw[228] um_iw[229] um_iw[22] um_iw[230]
+ um_iw[231] um_iw[232] um_iw[233] um_iw[234] um_iw[235] um_iw[236] um_iw[237] um_iw[238]
+ um_iw[239] um_iw[23] um_iw[240] um_iw[241] um_iw[242] um_iw[243] um_iw[244] um_iw[245]
+ um_iw[246] um_iw[247] um_iw[248] um_iw[249] um_iw[24] um_iw[250] um_iw[251] um_iw[252]
+ um_iw[253] um_iw[254] um_iw[255] um_iw[256] um_iw[257] um_iw[258] um_iw[259] um_iw[25]
+ um_iw[260] um_iw[261] um_iw[262] um_iw[263] um_iw[264] um_iw[265] um_iw[266] um_iw[267]
+ um_iw[268] um_iw[269] um_iw[26] um_iw[270] um_iw[271] um_iw[272] um_iw[273] um_iw[274]
+ um_iw[275] um_iw[276] um_iw[277] um_iw[278] um_iw[279] um_iw[27] um_iw[280] um_iw[281]
+ um_iw[282] um_iw[283] um_iw[284] um_iw[285] um_iw[286] um_iw[287] um_iw[28] um_iw[29]
+ um_iw[2] um_iw[30] um_iw[31] um_iw[32] um_iw[33] um_iw[34] um_iw[35] um_iw[36] um_iw[37]
+ um_iw[38] um_iw[39] um_iw[3] um_iw[40] um_iw[41] um_iw[42] um_iw[43] um_iw[44] um_iw[45]
+ um_iw[46] um_iw[47] um_iw[48] um_iw[49] um_iw[4] um_iw[50] um_iw[51] um_iw[52] um_iw[53]
+ um_iw[54] um_iw[55] um_iw[56] um_iw[57] um_iw[58] um_iw[59] um_iw[5] um_iw[60] um_iw[61]
+ um_iw[62] um_iw[63] um_iw[64] um_iw[65] um_iw[66] um_iw[67] um_iw[68] um_iw[69]
+ um_iw[6] um_iw[70] um_iw[71] um_iw[72] um_iw[73] um_iw[74] um_iw[75] um_iw[76] um_iw[77]
+ um_iw[78] um_iw[79] um_iw[7] um_iw[80] um_iw[81] um_iw[82] um_iw[83] um_iw[84] um_iw[85]
+ um_iw[86] um_iw[87] um_iw[88] um_iw[89] um_iw[8] um_iw[90] um_iw[91] um_iw[92] um_iw[93]
+ um_iw[94] um_iw[95] um_iw[96] um_iw[97] um_iw[98] um_iw[99] um_iw[9] um_k_zero[0]
+ um_k_zero[10] um_k_zero[11] um_k_zero[12] um_k_zero[13] um_k_zero[14] um_k_zero[15]
+ um_k_zero[1] um_k_zero[2] um_k_zero[3] um_k_zero[4] um_k_zero[5] um_k_zero[6] um_k_zero[7]
+ um_k_zero[8] um_k_zero[9] um_ow[0] um_ow[100] um_ow[101] um_ow[102] um_ow[103] um_ow[104]
+ um_ow[105] um_ow[106] um_ow[107] um_ow[108] um_ow[109] um_ow[10] um_ow[110] um_ow[111]
+ um_ow[112] um_ow[113] um_ow[114] um_ow[115] um_ow[116] um_ow[117] um_ow[118] um_ow[119]
+ um_ow[11] um_ow[120] um_ow[121] um_ow[122] um_ow[123] um_ow[124] um_ow[125] um_ow[126]
+ um_ow[127] um_ow[128] um_ow[129] um_ow[12] um_ow[130] um_ow[131] um_ow[132] um_ow[133]
+ um_ow[134] um_ow[135] um_ow[136] um_ow[137] um_ow[138] um_ow[139] um_ow[13] um_ow[140]
+ um_ow[141] um_ow[142] um_ow[143] um_ow[144] um_ow[145] um_ow[146] um_ow[147] um_ow[148]
+ um_ow[149] um_ow[14] um_ow[150] um_ow[151] um_ow[152] um_ow[153] um_ow[154] um_ow[155]
+ um_ow[156] um_ow[157] um_ow[158] um_ow[159] um_ow[15] um_ow[160] um_ow[161] um_ow[162]
+ um_ow[163] um_ow[164] um_ow[165] um_ow[166] um_ow[167] um_ow[168] um_ow[169] um_ow[16]
+ um_ow[170] um_ow[171] um_ow[172] um_ow[173] um_ow[174] um_ow[175] um_ow[176] um_ow[177]
+ um_ow[178] um_ow[179] um_ow[17] um_ow[180] um_ow[181] um_ow[182] um_ow[183] um_ow[184]
+ um_ow[185] um_ow[186] um_ow[187] um_ow[188] um_ow[189] um_ow[18] um_ow[190] um_ow[191]
+ um_ow[192] um_ow[193] um_ow[194] um_ow[195] um_ow[196] um_ow[197] um_ow[198] um_ow[199]
+ um_ow[19] um_ow[1] um_ow[200] um_ow[201] um_ow[202] um_ow[203] um_ow[204] um_ow[205]
+ um_ow[206] um_ow[207] um_ow[208] um_ow[209] um_ow[20] um_ow[210] um_ow[211] um_ow[212]
+ um_ow[213] um_ow[214] um_ow[215] um_ow[216] um_ow[217] um_ow[218] um_ow[219] um_ow[21]
+ um_ow[220] um_ow[221] um_ow[222] um_ow[223] um_ow[224] um_ow[225] um_ow[226] um_ow[227]
+ um_ow[228] um_ow[229] um_ow[22] um_ow[230] um_ow[231] um_ow[232] um_ow[233] um_ow[234]
+ um_ow[235] um_ow[236] um_ow[237] um_ow[238] um_ow[239] um_ow[23] um_ow[240] um_ow[241]
+ um_ow[242] um_ow[243] um_ow[244] um_ow[245] um_ow[246] um_ow[247] um_ow[248] um_ow[249]
+ um_ow[24] um_ow[250] um_ow[251] um_ow[252] um_ow[253] um_ow[254] um_ow[255] um_ow[256]
+ um_ow[257] um_ow[258] um_ow[259] um_ow[25] um_ow[260] um_ow[261] um_ow[262] um_ow[263]
+ um_ow[264] um_ow[265] um_ow[266] um_ow[267] um_ow[268] um_ow[269] um_ow[26] um_ow[270]
+ um_ow[271] um_ow[272] um_ow[273] um_ow[274] um_ow[275] um_ow[276] um_ow[277] um_ow[278]
+ um_ow[279] um_ow[27] um_ow[280] um_ow[281] um_ow[282] um_ow[283] um_ow[284] um_ow[285]
+ um_ow[286] um_ow[287] um_ow[288] um_ow[289] um_ow[28] um_ow[290] um_ow[291] um_ow[292]
+ um_ow[293] um_ow[294] um_ow[295] um_ow[296] um_ow[297] um_ow[298] um_ow[299] um_ow[29]
+ um_ow[2] um_ow[300] um_ow[301] um_ow[302] um_ow[303] um_ow[304] um_ow[305] um_ow[306]
+ um_ow[307] um_ow[308] um_ow[309] um_ow[30] um_ow[310] um_ow[311] um_ow[312] um_ow[313]
+ um_ow[314] um_ow[315] um_ow[316] um_ow[317] um_ow[318] um_ow[319] um_ow[31] um_ow[320]
+ um_ow[321] um_ow[322] um_ow[323] um_ow[324] um_ow[325] um_ow[326] um_ow[327] um_ow[328]
+ um_ow[329] um_ow[32] um_ow[330] um_ow[331] um_ow[332] um_ow[333] um_ow[334] um_ow[335]
+ um_ow[336] um_ow[337] um_ow[338] um_ow[339] um_ow[33] um_ow[340] um_ow[341] um_ow[342]
+ um_ow[343] um_ow[344] um_ow[345] um_ow[346] um_ow[347] um_ow[348] um_ow[349] um_ow[34]
+ um_ow[350] um_ow[351] um_ow[352] um_ow[353] um_ow[354] um_ow[355] um_ow[356] um_ow[357]
+ um_ow[358] um_ow[359] um_ow[35] um_ow[360] um_ow[361] um_ow[362] um_ow[363] um_ow[364]
+ um_ow[365] um_ow[366] um_ow[367] um_ow[368] um_ow[369] um_ow[36] um_ow[370] um_ow[371]
+ um_ow[372] um_ow[373] um_ow[374] um_ow[375] um_ow[376] um_ow[377] um_ow[378] um_ow[379]
+ um_ow[37] um_ow[380] um_ow[381] um_ow[382] um_ow[383] um_ow[38] um_ow[39] um_ow[3]
+ um_ow[40] um_ow[41] um_ow[42] um_ow[43] um_ow[44] um_ow[45] um_ow[46] um_ow[47]
+ um_ow[48] um_ow[49] um_ow[4] um_ow[50] um_ow[51] um_ow[52] um_ow[53] um_ow[54] um_ow[55]
+ um_ow[56] um_ow[57] um_ow[58] um_ow[59] um_ow[5] um_ow[60] um_ow[61] um_ow[62] um_ow[63]
+ um_ow[64] um_ow[65] um_ow[66] um_ow[67] um_ow[68] um_ow[69] um_ow[6] um_ow[70] um_ow[71]
+ um_ow[72] um_ow[73] um_ow[74] um_ow[75] um_ow[76] um_ow[77] um_ow[78] um_ow[79]
+ um_ow[7] um_ow[80] um_ow[81] um_ow[82] um_ow[83] um_ow[84] um_ow[85] um_ow[86] um_ow[87]
+ um_ow[88] um_ow[89] um_ow[8] um_ow[90] um_ow[91] um_ow[92] um_ow[93] um_ow[94] um_ow[95]
+ um_ow[96] um_ow[97] um_ow[98] um_ow[99] um_ow[9] vccd1 vssd1
XTAP_199 vssd1 vccd1 sky130_fd_sc_hd__tapvpwrvgnd_1
XTAP_188 vssd1 vccd1 sky130_fd_sc_hd__tapvpwrvgnd_1
XTAP_177 vssd1 vccd1 sky130_fd_sc_hd__tapvpwrvgnd_1
XFILLER_0_8_2673 vssd1 vssd1 vccd1 vccd1 sky130_ef_sc_hd__decap_12
XFILLER_0_15_2594 vssd1 vssd1 vccd1 vccd1 sky130_fd_sc_hd__decap_4
XFILLER_0_15_2572 vssd1 vssd1 vccd1 vccd1 sky130_fd_sc_hd__decap_4
XFILLER_0_4_1869 vssd1 vssd1 vccd1 vccd1 sky130_fd_sc_hd__decap_6
XFILLER_0_11_2436 vssd1 vssd1 vccd1 vccd1 sky130_ef_sc_hd__decap_12
XFILLER_0_11_1735 vssd1 vssd1 vccd1 vccd1 sky130_fd_sc_hd__fill_1
XFILLER_0_11_1757 vssd1 vssd1 vccd1 vccd1 sky130_fd_sc_hd__decap_4
XFILLER_0_14_951 vssd1 vssd1 vccd1 vccd1 sky130_fd_sc_hd__decap_4
Xcol\[4\].zbuf_bot_iw_I\[10\].genblk1.cell0_I net507 col\[4\].zbuf_bot_ena_I.e vssd1
+ vssd1 vccd1 vccd1 col\[4\].zbuf_bot_iw_I\[10\].z sky130_fd_sc_hd__and2_1
XFILLER_0_13_461 vssd1 vssd1 vccd1 vccd1 sky130_ef_sc_hd__decap_12
XFILLER_0_7_81 vssd1 vssd1 vccd1 vccd1 sky130_ef_sc_hd__decap_12
XANTENNA_224 net496 vssd1 vssd1 vccd1 vccd1 sky130_fd_sc_hd__diode_2
XANTENNA_213 net477 vssd1 vssd1 vccd1 vccd1 sky130_fd_sc_hd__diode_2
XANTENNA_202 net350 vssd1 vssd1 vccd1 vccd1 sky130_fd_sc_hd__diode_2
X_432_ col\[7\].zbuf_bot_iw_I\[3\].z vssd1 vssd1 vccd1 vccd1 um_iw[255] sky130_fd_sc_hd__buf_2
XANTENNA_246 col\[0\].genblk1.tbuf_spine_ow_I\[17\].z vssd1 vssd1 vccd1 vccd1 sky130_fd_sc_hd__diode_2
XANTENNA_257 col\[0\].genblk1.tbuf_spine_ow_I\[2\].z vssd1 vssd1 vccd1 vccd1 sky130_fd_sc_hd__diode_2
XANTENNA_235 _013_ vssd1 vssd1 vccd1 vccd1 sky130_fd_sc_hd__diode_2
XFILLER_0_7_2183 vssd1 vssd1 vccd1 vccd1 sky130_fd_sc_hd__fill_1
XANTENNA_268 col\[0\].genblk1.tbuf_spine_ow_I\[2\].z vssd1 vssd1 vccd1 vccd1 sky130_fd_sc_hd__diode_2
XFILLER_0_9_1769 vssd1 vssd1 vccd1 vccd1 sky130_ef_sc_hd__decap_12
XANTENNA_279 col\[0\].genblk1.tbuf_spine_ow_I\[3\].z vssd1 vssd1 vccd1 vccd1 sky130_fd_sc_hd__diode_2
XFILLER_0_14_2093 vssd1 vssd1 vccd1 vccd1 sky130_fd_sc_hd__decap_6
XFILLER_0_0_2913 vssd1 vssd1 vccd1 vccd1 sky130_fd_sc_hd__fill_2
X_363_ col\[5\].zbuf_bot_iw_I\[6\].z vssd1 vssd1 vccd1 vccd1 um_iw[186] sky130_fd_sc_hd__buf_2
XFILLER_0_7_1493 vssd1 vssd1 vccd1 vccd1 sky130_ef_sc_hd__decap_12
XFILLER_0_14_1392 vssd1 vssd1 vccd1 vccd1 sky130_fd_sc_hd__fill_1
XFILLER_0_14_1370 vssd1 vssd1 vccd1 vccd1 sky130_fd_sc_hd__fill_2
X_294_ col\[3\].zbuf_bot_iw_I\[9\].z vssd1 vssd1 vccd1 vccd1 um_iw[117] sky130_fd_sc_hd__buf_2
XFILLER_0_3_1357 vssd1 vssd1 vccd1 vccd1 sky130_ef_sc_hd__decap_12
XFILLER_0_3_609 vssd1 vssd1 vccd1 vccd1 sky130_fd_sc_hd__decap_6
XFILLER_0_3_39 vssd1 vssd1 vccd1 vccd1 sky130_ef_sc_hd__decap_12
XFILLER_0_8_1202 vssd1 vssd1 vccd1 vccd1 sky130_fd_sc_hd__fill_2
XFILLER_0_5_2857 vssd1 vssd1 vccd1 vccd1 sky130_fd_sc_hd__decap_4
XFILLER_0_15_1145 vssd1 vssd1 vccd1 vccd1 sky130_fd_sc_hd__decap_3
XFILLER_0_5_2879 vssd1 vssd1 vccd1 vccd1 sky130_fd_sc_hd__decap_4
XFILLER_0_15_1167 vssd1 vssd1 vccd1 vccd1 sky130_fd_sc_hd__decap_4
XFILLER_0_13_51 vssd1 vssd1 vccd1 vccd1 sky130_fd_sc_hd__decap_4
XFILLER_0_11_1009 vssd1 vssd1 vccd1 vccd1 sky130_ef_sc_hd__decap_12
XFILLER_0_15_1189 vssd1 vssd1 vccd1 vccd1 sky130_fd_sc_hd__fill_1
XFILLER_0_6_425 vssd1 vssd1 vccd1 vccd1 sky130_fd_sc_hd__fill_2
XFILLER_0_10_2480 vssd1 vssd1 vccd1 vccd1 sky130_fd_sc_hd__decap_3
XFILLER_0_11_921 vssd1 vssd1 vccd1 vccd1 sky130_ef_sc_hd__decap_12
XFILLER_0_2_686 vssd1 vssd1 vccd1 vccd1 sky130_ef_sc_hd__decap_12
Xcol\[6\].genblk1.mux4_I\[17\].cell0_I net263 net289 net316 net342 net472 net458 vssd1
+ vssd1 vccd1 vccd1 col\[6\].genblk1.mux4_I\[17\].x sky130_fd_sc_hd__mux4_1
XFILLER_0_11_965 vssd1 vssd1 vccd1 vccd1 sky130_ef_sc_hd__decap_12
XFILLER_0_4_1644 vssd1 vssd1 vccd1 vccd1 sky130_fd_sc_hd__decap_8
XFILLER_0_11_2233 vssd1 vssd1 vccd1 vccd1 sky130_fd_sc_hd__decap_6
XFILLER_0_11_2277 vssd1 vssd1 vccd1 vccd1 sky130_ef_sc_hd__decap_12
XFILLER_0_6_981 vssd1 vssd1 vccd1 vccd1 sky130_ef_sc_hd__decap_12
XFILLER_0_14_781 vssd1 vssd1 vccd1 vccd1 sky130_fd_sc_hd__decap_4
XFILLER_0_5_2109 vssd1 vssd1 vccd1 vccd1 sky130_ef_sc_hd__decap_12
XFILLER_0_9_1511 vssd1 vssd1 vccd1 vccd1 sky130_fd_sc_hd__fill_1
XFILLER_0_9_2289 vssd1 vssd1 vccd1 vccd1 sky130_fd_sc_hd__decap_6
XFILLER_0_9_1577 vssd1 vssd1 vccd1 vccd1 sky130_fd_sc_hd__decap_3
X_415_ col\[6\].zbuf_top_iw_I\[4\].z vssd1 vssd1 vccd1 vccd1 um_iw[238] sky130_fd_sc_hd__buf_2
XFILLER_0_0_2710 vssd1 vssd1 vccd1 vccd1 sky130_fd_sc_hd__decap_6
XFILLER_0_3_1121 vssd1 vssd1 vccd1 vccd1 sky130_fd_sc_hd__fill_2
XFILLER_0_0_2732 vssd1 vssd1 vccd1 vccd1 sky130_ef_sc_hd__decap_12
XFILLER_0_0_2721 vssd1 vssd1 vccd1 vccd1 sky130_fd_sc_hd__fill_1
X_346_ col\[4\].zbuf_top_iw_I\[7\].z vssd1 vssd1 vccd1 vccd1 um_iw[169] sky130_fd_sc_hd__buf_2
XFILLER_0_12_1329 vssd1 vssd1 vccd1 vccd1 sky130_ef_sc_hd__decap_12
X_277_ col\[2\].zbuf_top_iw_I\[10\].z vssd1 vssd1 vccd1 vccd1 um_iw[100] sky130_fd_sc_hd__buf_2
XFILLER_0_10_1097 vssd1 vssd1 vccd1 vccd1 sky130_fd_sc_hd__fill_1
Xcol\[0\].zbuf_bot_iw_I\[5\].genblk1.cell0_I net483 col\[0\].zbuf_bot_ena_I.e vssd1
+ vssd1 vccd1 vccd1 col\[0\].zbuf_bot_iw_I\[5\].z sky130_fd_sc_hd__and2_1
XFILLER_0_11_217 vssd1 vssd1 vccd1 vccd1 sky130_fd_sc_hd__decap_6
Xcol\[4\].genblk1.mux4_I\[8\].cell0_I net147 net173 net199 net226 net468 net454 vssd1
+ vssd1 vccd1 vccd1 col\[4\].genblk1.mux4_I\[8\].x sky130_fd_sc_hd__mux4_1
XFILLER_0_14_2829 vssd1 vssd1 vccd1 vccd1 sky130_fd_sc_hd__fill_2
XFILLER_0_5_1953 vssd1 vssd1 vccd1 vccd1 sky130_fd_sc_hd__decap_6
XFILLER_0_8_1087 vssd1 vssd1 vccd1 vccd1 sky130_fd_sc_hd__decap_4
XFILLER_0_5_1997 vssd1 vssd1 vccd1 vccd1 sky130_ef_sc_hd__decap_12
XFILLER_0_6_233 vssd1 vssd1 vccd1 vccd1 sky130_ef_sc_hd__decap_12
XFILLER_0_15_523 vssd1 vssd1 vccd1 vccd1 sky130_fd_sc_hd__decap_4
XFILLER_0_6_277 vssd1 vssd1 vccd1 vccd1 sky130_ef_sc_hd__decap_12
Xcol\[2\].zbuf_bot_iw_I\[0\].genblk1.cell0_I net509 col\[2\].zbuf_bot_ena_I.e vssd1
+ vssd1 vccd1 vccd1 col\[2\].zbuf_bot_iw_I\[0\].z sky130_fd_sc_hd__and2_1
XFILLER_0_15_589 vssd1 vssd1 vccd1 vccd1 sky130_ef_sc_hd__decap_12
XFILLER_0_6_2407 vssd1 vssd1 vccd1 vccd1 sky130_fd_sc_hd__fill_2
XFILLER_0_13_1605 vssd1 vssd1 vccd1 vccd1 sky130_ef_sc_hd__decap_12
XFILLER_0_13_1649 vssd1 vssd1 vccd1 vccd1 sky130_ef_sc_hd__decap_12
XFILLER_0_0_2017 vssd1 vssd1 vccd1 vccd1 sky130_fd_sc_hd__fill_2
XFILLER_0_4_1441 vssd1 vssd1 vccd1 vccd1 sky130_ef_sc_hd__decap_12
XFILLER_0_11_2041 vssd1 vssd1 vccd1 vccd1 sky130_ef_sc_hd__decap_12
X_200_ col\[0\].zbuf_top_iw_I\[5\].z vssd1 vssd1 vccd1 vccd1 um_iw[23] sky130_fd_sc_hd__buf_2
XFILLER_0_0_1305 vssd1 vssd1 vccd1 vccd1 sky130_fd_sc_hd__decap_4
XFILLER_0_4_1485 vssd1 vssd1 vccd1 vccd1 sky130_fd_sc_hd__decap_8
XFILLER_0_4_1496 vssd1 vssd1 vccd1 vccd1 sky130_fd_sc_hd__fill_2
XFILLER_0_11_2085 vssd1 vssd1 vccd1 vccd1 sky130_ef_sc_hd__decap_12
X_062_ _009_ vssd1 vssd1 vccd1 vccd1 tbuf_row_ena_I.t sky130_fd_sc_hd__clkbuf_1
Xfanout480 col\[0\].zbuf_bot_iw_I\[7\].a vssd1 vssd1 vccd1 vccd1 net480 sky130_fd_sc_hd__clkbuf_4
Xfanout491 col\[0\].zbuf_bot_iw_I\[1\].a vssd1 vssd1 vccd1 vccd1 net491 sky130_fd_sc_hd__buf_8
Xcol\[0\].genblk1.mux4_I\[6\].cell0_I net385 net268 net368 net394 net462 net448 vssd1
+ vssd1 vccd1 vccd1 col\[0\].genblk1.mux4_I\[6\].x sky130_fd_sc_hd__mux4_2
XFILLER_0_0_29 vssd1 vssd1 vccd1 vccd1 sky130_fd_sc_hd__fill_2
XFILLER_0_9_2097 vssd1 vssd1 vccd1 vccd1 sky130_ef_sc_hd__decap_12
XFILLER_0_2_2827 vssd1 vssd1 vccd1 vccd1 sky130_fd_sc_hd__fill_1
X_329_ col\[4\].zbuf_bot_iw_I\[8\].z vssd1 vssd1 vccd1 vccd1 um_iw[152] sky130_fd_sc_hd__buf_2
XFILLER_0_9_27 vssd1 vssd1 vccd1 vccd1 sky130_ef_sc_hd__decap_12
XFILLER_0_3_225 vssd1 vssd1 vccd1 vccd1 sky130_ef_sc_hd__decap_12
XFILLER_0_10_41 vssd1 vssd1 vccd1 vccd1 sky130_ef_sc_hd__decap_12
XFILLER_0_10_85 vssd1 vssd1 vccd1 vccd1 sky130_ef_sc_hd__decap_12
XFILLER_0_0_987 vssd1 vssd1 vccd1 vccd1 sky130_fd_sc_hd__fill_1
XFILLER_0_5_2462 vssd1 vssd1 vccd1 vccd1 sky130_fd_sc_hd__fill_2
XFILLER_0_12_2350 vssd1 vssd1 vccd1 vccd1 sky130_fd_sc_hd__decap_4
XFILLER_0_1_1625 vssd1 vssd1 vccd1 vccd1 sky130_ef_sc_hd__decap_12
XFILLER_0_7_597 vssd1 vssd1 vccd1 vccd1 sky130_ef_sc_hd__decap_12
Xcol\[3\].zbuf_top_iw_I\[17\].genblk1.cell0_I net493 net427 vssd1 vssd1 vccd1 vccd1
+ col\[3\].zbuf_top_iw_I\[17\].z sky130_fd_sc_hd__and2_1
XFILLER_0_6_2237 vssd1 vssd1 vccd1 vccd1 sky130_ef_sc_hd__decap_12
XFILLER_0_13_2136 vssd1 vssd1 vccd1 vccd1 sky130_fd_sc_hd__fill_2
XFILLER_0_13_2158 vssd1 vssd1 vccd1 vccd1 sky130_fd_sc_hd__decap_8
XFILLER_0_13_1457 vssd1 vssd1 vccd1 vccd1 sky130_ef_sc_hd__decap_12
XFILLER_0_1_2882 vssd1 vssd1 vccd1 vccd1 sky130_fd_sc_hd__decap_4
XFILLER_0_11_1170 vssd1 vssd1 vccd1 vccd1 sky130_fd_sc_hd__fill_2
XFILLER_0_1_707 vssd1 vssd1 vccd1 vccd1 sky130_fd_sc_hd__decap_4
XFILLER_0_1_729 vssd1 vssd1 vccd1 vccd1 sky130_ef_sc_hd__decap_12
XTAP_507 vssd1 vccd1 sky130_fd_sc_hd__tapvpwrvgnd_1
XTAP_518 vssd1 vccd1 sky130_fd_sc_hd__tapvpwrvgnd_1
XTAP_529 vssd1 vccd1 sky130_fd_sc_hd__tapvpwrvgnd_1
XFILLER_0_15_2913 vssd1 vssd1 vccd1 vccd1 sky130_fd_sc_hd__fill_2
XFILLER_0_9_1171 vssd1 vssd1 vccd1 vccd1 sky130_fd_sc_hd__decap_4
XFILLER_0_2_1901 vssd1 vssd1 vccd1 vccd1 sky130_fd_sc_hd__decap_6
XFILLER_0_5_1046 vssd1 vssd1 vccd1 vccd1 sky130_ef_sc_hd__decap_12
XFILLER_0_0_2381 vssd1 vssd1 vccd1 vccd1 sky130_fd_sc_hd__fill_2
Xcol\[3\].zbuf_bot_iw_I\[8\].genblk1.cell0_I net477 col\[3\].zbuf_bot_ena_I.e vssd1
+ vssd1 vccd1 vccd1 col\[3\].zbuf_bot_iw_I\[8\].z sky130_fd_sc_hd__and2_1
XFILLER_0_2_1989 vssd1 vssd1 vccd1 vccd1 sky130_ef_sc_hd__decap_12
XFILLER_0_4_523 vssd1 vssd1 vccd1 vccd1 sky130_fd_sc_hd__decap_8
XFILLER_0_4_545 vssd1 vssd1 vccd1 vccd1 sky130_ef_sc_hd__decap_12
XFILLER_0_4_589 vssd1 vssd1 vccd1 vccd1 sky130_ef_sc_hd__decap_12
XFILLER_0_12_345 vssd1 vssd1 vccd1 vccd1 sky130_ef_sc_hd__decap_12
XFILLER_0_0_740 vssd1 vssd1 vccd1 vccd1 sky130_fd_sc_hd__decap_4
XFILLER_0_12_389 vssd1 vssd1 vccd1 vccd1 sky130_ef_sc_hd__decap_12
XFILLER_0_7_2557 vssd1 vssd1 vccd1 vccd1 sky130_ef_sc_hd__decap_12
XFILLER_0_14_1733 vssd1 vssd1 vccd1 vccd1 sky130_fd_sc_hd__fill_2
XFILLER_0_14_2489 vssd1 vssd1 vccd1 vccd1 sky130_fd_sc_hd__decap_3
XFILLER_0_14_1744 vssd1 vssd1 vccd1 vccd1 sky130_fd_sc_hd__fill_2
XFILLER_0_1_2145 vssd1 vssd1 vccd1 vccd1 sky130_fd_sc_hd__decap_4
XFILLER_0_1_1411 vssd1 vssd1 vccd1 vccd1 sky130_fd_sc_hd__decap_4
Xcol\[5\].zbuf_bot_iw_I\[3\].genblk1.cell0_I net488 col\[5\].zbuf_bot_ena_I.e vssd1
+ vssd1 vccd1 vccd1 col\[5\].zbuf_bot_iw_I\[3\].z sky130_fd_sc_hd__and2_1
XFILLER_0_7_361 vssd1 vssd1 vccd1 vccd1 sky130_ef_sc_hd__decap_12
XFILLER_0_15_150 vssd1 vssd1 vccd1 vccd1 sky130_fd_sc_hd__decap_4
Xinput301 um_ow[33] vssd1 vssd1 vccd1 vccd1 net301 sky130_fd_sc_hd__clkbuf_2
Xinput312 um_ow[34] vssd1 vssd1 vccd1 vccd1 net312 sky130_fd_sc_hd__clkbuf_2
Xinput334 um_ow[36] vssd1 vssd1 vccd1 vccd1 net334 sky130_fd_sc_hd__dlymetal6s2s_1
Xinput345 um_ow[37] vssd1 vssd1 vccd1 vccd1 net345 sky130_fd_sc_hd__clkbuf_2
Xinput323 um_ow[35] vssd1 vssd1 vccd1 vccd1 net323 sky130_fd_sc_hd__clkbuf_2
Xinput356 um_ow[43] vssd1 vssd1 vccd1 vccd1 net356 sky130_fd_sc_hd__clkbuf_2
Xinput378 um_ow[63] vssd1 vssd1 vccd1 vccd1 net378 sky130_fd_sc_hd__clkbuf_1
Xinput367 um_ow[53] vssd1 vssd1 vccd1 vccd1 net367 sky130_fd_sc_hd__clkbuf_1
Xinput389 um_ow[73] vssd1 vssd1 vccd1 vccd1 net389 sky130_fd_sc_hd__clkbuf_1
XFILLER_0_6_2001 vssd1 vssd1 vccd1 vccd1 sky130_ef_sc_hd__decap_12
XFILLER_0_6_2045 vssd1 vssd1 vccd1 vccd1 sky130_ef_sc_hd__decap_12
XFILLER_0_6_1344 vssd1 vssd1 vccd1 vccd1 sky130_ef_sc_hd__decap_12
Xcol\[4\].genblk1.tbuf_spine_ow_I\[21\].cell0_I col\[4\].genblk1.mux4_I\[21\].x net438
+ vssd1 vssd1 vccd1 vccd1 col\[0\].genblk1.tbuf_spine_ow_I\[21\].z sky130_fd_sc_hd__ebufn_8
XFILLER_0_10_2854 vssd1 vssd1 vccd1 vccd1 sky130_fd_sc_hd__decap_4
XFILLER_0_13_1287 vssd1 vssd1 vccd1 vccd1 sky130_fd_sc_hd__fill_1
XFILLER_0_4_1090 vssd1 vssd1 vccd1 vccd1 sky130_fd_sc_hd__fill_2
XANTENNA_5 col\[0\].genblk1.tbuf_spine_ow_I\[0\].z vssd1 vssd1 vccd1 vccd1 sky130_fd_sc_hd__diode_2
XFILLER_0_1_559 vssd1 vssd1 vccd1 vccd1 sky130_fd_sc_hd__fill_1
XFILLER_0_10_805 vssd1 vssd1 vccd1 vccd1 sky130_fd_sc_hd__decap_6
XTAP_304 vssd1 vccd1 sky130_fd_sc_hd__tapvpwrvgnd_1
XTAP_315 vssd1 vccd1 sky130_fd_sc_hd__tapvpwrvgnd_1
XTAP_326 vssd1 vccd1 sky130_fd_sc_hd__tapvpwrvgnd_1
XTAP_337 vssd1 vccd1 sky130_fd_sc_hd__tapvpwrvgnd_1
XTAP_348 vssd1 vccd1 sky130_fd_sc_hd__tapvpwrvgnd_1
XTAP_359 vssd1 vccd1 sky130_fd_sc_hd__tapvpwrvgnd_1
XFILLER_0_8_2811 vssd1 vssd1 vccd1 vccd1 sky130_fd_sc_hd__decap_4
XFILLER_0_8_2866 vssd1 vssd1 vccd1 vccd1 sky130_fd_sc_hd__decap_4
XFILLER_0_7_1119 vssd1 vssd1 vccd1 vccd1 sky130_fd_sc_hd__fill_1
XFILLER_0_15_2765 vssd1 vssd1 vccd1 vccd1 sky130_fd_sc_hd__fill_2
XFILLER_0_14_1007 vssd1 vssd1 vccd1 vccd1 sky130_fd_sc_hd__decap_4
XFILLER_0_9_615 vssd1 vssd1 vccd1 vccd1 sky130_fd_sc_hd__fill_1
Xcol\[5\].zbuf_top_iw_I\[16\].genblk1.cell0_I net496 net423 vssd1 vssd1 vccd1 vccd1
+ col\[5\].zbuf_top_iw_I\[16\].z sky130_fd_sc_hd__and2_1
Xcol\[1\].zbuf_top_iw_I\[7\].genblk1.cell0_I net479 net432 vssd1 vssd1 vccd1 vccd1
+ col\[1\].zbuf_top_iw_I\[7\].z sky130_fd_sc_hd__and2_1
XFILLER_0_2_1720 vssd1 vssd1 vccd1 vccd1 sky130_fd_sc_hd__decap_6
XFILLER_0_11_1917 vssd1 vssd1 vccd1 vccd1 sky130_ef_sc_hd__decap_12
XFILLER_0_5_821 vssd1 vssd1 vccd1 vccd1 sky130_ef_sc_hd__decap_12
XFILLER_0_13_610 vssd1 vssd1 vccd1 vccd1 sky130_fd_sc_hd__decap_6
XFILLER_0_13_687 vssd1 vssd1 vccd1 vccd1 sky130_fd_sc_hd__fill_1
XFILLER_0_12_153 vssd1 vssd1 vccd1 vccd1 sky130_ef_sc_hd__decap_12
XFILLER_0_12_197 vssd1 vssd1 vccd1 vccd1 sky130_ef_sc_hd__decap_12
XFILLER_0_0_570 vssd1 vssd1 vccd1 vccd1 sky130_fd_sc_hd__decap_4
XTAP_871 vssd1 vccd1 sky130_fd_sc_hd__tapvpwrvgnd_1
XTAP_860 vssd1 vccd1 sky130_fd_sc_hd__tapvpwrvgnd_1
XTAP_893 vssd1 vccd1 sky130_fd_sc_hd__tapvpwrvgnd_1
XTAP_882 vssd1 vccd1 sky130_fd_sc_hd__tapvpwrvgnd_1
XFILLER_0_9_1929 vssd1 vssd1 vccd1 vccd1 sky130_ef_sc_hd__decap_12
Xcol\[2\].genblk1.mux4_I\[9\].cell0_I net41 net67 net94 net120 net466 net452 vssd1
+ vssd1 vccd1 vccd1 col\[2\].genblk1.mux4_I\[9\].x sky130_fd_sc_hd__mux4_1
XFILLER_0_7_2365 vssd1 vssd1 vccd1 vccd1 sky130_fd_sc_hd__fill_2
XFILLER_0_14_1541 vssd1 vssd1 vccd1 vccd1 sky130_ef_sc_hd__decap_12
Xcol\[3\].zbuf_top_iw_I\[2\].genblk1.cell0_I net489 net428 vssd1 vssd1 vccd1 vccd1
+ col\[3\].zbuf_top_iw_I\[2\].z sky130_fd_sc_hd__and2_1
XFILLER_0_3_1506 vssd1 vssd1 vccd1 vccd1 sky130_fd_sc_hd__fill_2
XFILLER_0_8_681 vssd1 vssd1 vccd1 vccd1 sky130_ef_sc_hd__decap_12
XFILLER_0_10_1427 vssd1 vssd1 vccd1 vccd1 sky130_fd_sc_hd__fill_1
XFILLER_0_1_1285 vssd1 vssd1 vccd1 vccd1 sky130_fd_sc_hd__decap_3
Xcol\[0\].genblk1.tbuf_spine_ow_I\[17\].cell0_I col\[0\].genblk1.mux4_I\[17\].x net445
+ vssd1 vssd1 vccd1 vccd1 col\[0\].genblk1.tbuf_spine_ow_I\[17\].z sky130_fd_sc_hd__ebufn_8
Xinput120 um_ow[177] vssd1 vssd1 vccd1 vccd1 net120 sky130_fd_sc_hd__clkbuf_1
Xinput131 um_ow[187] vssd1 vssd1 vccd1 vccd1 net131 sky130_fd_sc_hd__clkbuf_1
Xinput142 um_ow[197] vssd1 vssd1 vccd1 vccd1 net142 sky130_fd_sc_hd__clkbuf_1
Xinput153 um_ow[206] vssd1 vssd1 vccd1 vccd1 net153 sky130_fd_sc_hd__clkbuf_1
Xinput175 um_ow[226] vssd1 vssd1 vccd1 vccd1 net175 sky130_fd_sc_hd__clkbuf_1
Xinput186 um_ow[236] vssd1 vssd1 vccd1 vccd1 net186 sky130_fd_sc_hd__clkbuf_1
Xinput164 um_ow[216] vssd1 vssd1 vccd1 vccd1 net164 sky130_fd_sc_hd__clkbuf_1
Xinput197 um_ow[246] vssd1 vssd1 vccd1 vccd1 net197 sky130_fd_sc_hd__dlymetal6s2s_1
Xtbuf_spine_ow_I\[15\].cell0_I col\[0\].genblk1.tbuf_spine_ow_I\[15\].z net511 vssd1
+ vssd1 vccd1 vccd1 tbuf_spine_ow_I\[15\].z sky130_fd_sc_hd__ebufn_1
XFILLER_0_15_2017 vssd1 vssd1 vccd1 vccd1 sky130_fd_sc_hd__fill_2
Xcol\[2\].genblk1.mux4_I\[12\].cell0_I net44 net71 net97 net124 net465 net451 vssd1
+ vssd1 vccd1 vccd1 col\[2\].genblk1.mux4_I\[12\].x sky130_fd_sc_hd__mux4_1
XFILLER_0_15_1305 vssd1 vssd1 vccd1 vccd1 sky130_fd_sc_hd__decap_4
XFILLER_0_2_1005 vssd1 vssd1 vccd1 vccd1 sky130_fd_sc_hd__fill_1
XFILLER_0_6_1141 vssd1 vssd1 vccd1 vccd1 sky130_fd_sc_hd__decap_6