*SPEF "ieee 1481-1999"
*DESIGN "tt_ctrl"
*DATE "11:11:11 Fri 11 11, 1111"
*VENDOR "OpenRCX"
*PROGRAM "Parallel Extraction"
*VERSION "1.0"
*DESIGN_FLOW "NAME_SCOPE LOCAL" "PIN_CAP NONE"
*DIVIDER /
*DELIMITER :
*BUS_DELIMITER []
*T_UNIT 1 NS
*C_UNIT 1 PF
*R_UNIT 1 OHM
*L_UNIT 1 HENRY

*NAME_MAP
*1 ctrl_ena
*2 ctrl_sel_inc
*3 ctrl_sel_rst_n
*4 net49
*5 net46
*6 pad_ui_in[0]
*7 pad_ui_in[1]
*8 pad_ui_in[2]
*9 pad_ui_in[3]
*10 pad_ui_in[4]
*11 pad_ui_in[5]
*12 pad_ui_in[6]
*13 pad_ui_in[7]
*14 pad_ui_in[8]
*15 pad_ui_in[9]
*16 pad_uio_in[0]
*17 pad_uio_in[1]
*18 pad_uio_in[2]
*19 pad_uio_in[3]
*20 pad_uio_in[4]
*21 pad_uio_in[5]
*22 pad_uio_in[6]
*23 pad_uio_in[7]
*24 pad_uio_oe_n[0]
*25 pad_uio_oe_n[1]
*26 pad_uio_oe_n[2]
*27 pad_uio_oe_n[3]
*28 pad_uio_oe_n[4]
*29 pad_uio_oe_n[5]
*30 pad_uio_oe_n[6]
*31 pad_uio_oe_n[7]
*32 pad_uio_out[0]
*33 pad_uio_out[1]
*34 pad_uio_out[2]
*35 pad_uio_out[3]
*36 pad_uio_out[4]
*37 pad_uio_out[5]
*38 pad_uio_out[6]
*39 pad_uio_out[7]
*40 pad_uo_out[0]
*41 pad_uo_out[1]
*42 pad_uo_out[2]
*43 pad_uo_out[3]
*44 pad_uo_out[4]
*45 pad_uo_out[5]
*46 pad_uo_out[6]
*47 pad_uo_out[7]
*48 net47
*49 spine_iw[10]
*50 spine_iw[11]
*51 spine_iw[12]
*52 spine_iw[13]
*53 spine_iw[14]
*54 spine_iw[15]
*55 spine_iw[16]
*56 spine_iw[17]
*57 spine_iw[18]
*58 spine_iw[19]
*59 spine_iw[1]
*60 spine_iw[20]
*61 spine_iw[21]
*62 spine_iw[22]
*63 spine_iw[23]
*64 spine_iw[24]
*65 spine_iw[25]
*66 spine_iw[26]
*67 spine_iw[27]
*68 spine_iw[28]
*69 spine_iw[29]
*70 spine_iw[2]
*71 net48
*72 spine_iw[3]
*73 spine_iw[4]
*74 spine_iw[5]
*75 spine_iw[6]
*76 spine_iw[7]
*77 spine_iw[8]
*78 spine_iw[9]
*79 spine_ow[0]
*80 spine_ow[10]
*81 spine_ow[11]
*82 spine_ow[12]
*83 spine_ow[13]
*84 spine_ow[14]
*85 spine_ow[15]
*86 spine_ow[16]
*87 spine_ow[17]
*88 spine_ow[18]
*89 spine_ow[19]
*90 spine_ow[1]
*91 spine_ow[20]
*92 spine_ow[21]
*93 spine_ow[22]
*94 spine_ow[23]
*95 spine_ow[24]
*96 spine_ow[25]
*97 spine_ow[2]
*98 spine_ow[3]
*99 spine_ow[4]
*100 spine_ow[5]
*101 spine_ow[6]
*102 spine_ow[7]
*103 spine_ow[8]
*104 spine_ow[9]
*107 ctrl_ena_buf_I\.z
*108 genblk1\[0\]\.cnt_bit_I\.d
*109 genblk1\[0\]\.cnt_bit_I\.q
*110 genblk1\[1\]\.cnt_bit_I\.d
*111 genblk1\[1\]\.cnt_bit_I\.q
*112 genblk1\[2\]\.cnt_bit_I\.d
*113 genblk1\[2\]\.cnt_bit_I\.q
*114 genblk1\[3\]\.cnt_bit_I\.d
*115 genblk1\[3\]\.cnt_bit_I\.q
*116 genblk1\[4\]\.cnt_bit_I\.d
*117 genblk1\[4\]\.cnt_bit_I\.q
*118 genblk1\[5\]\.cnt_bit_I\.d
*119 genblk1\[5\]\.cnt_bit_I\.q
*120 genblk1\[6\]\.cnt_bit_I\.d
*121 genblk1\[6\]\.cnt_bit_I\.q
*122 genblk1\[7\]\.cnt_bit_I\.d
*123 genblk1\[7\]\.cnt_bit_I\.q
*124 genblk1\[8\]\.cnt_bit_I\.d
*125 genblk1\[8\]\.cnt_bit_I\.q
*126 genblk1\[9\]\.cnt_bit_I\.d
*127 genblk1\[9\]\.cnt_bit_I\.q
*128 net1
*129 net10
*130 net11
*131 net12
*132 net13
*133 net14
*134 net15
*135 net16
*136 net17
*137 net18
*138 net19
*139 net2
*140 net20
*141 net21
*142 net22
*143 net23
*144 net24
*145 net25
*146 net26
*147 net27
*148 net28
*149 net29
*150 net3
*151 net30
*152 net31
*153 net32
*154 net33
*155 net34
*156 net35
*157 net36
*158 net37
*159 net38
*160 net39
*161 net4
*162 net40
*163 net41
*164 net42
*165 net43
*166 net44
*167 net45
*168 net5
*169 net6
*170 net7
*171 net8
*172 net9
*173 pad_ui_in_buf_I\[0\]\.z
*174 pad_ui_in_buf_I\[1\]\.z
*175 pad_ui_in_buf_I\[2\]\.z
*176 pad_ui_in_buf_I\[3\]\.z
*177 pad_ui_in_buf_I\[4\]\.z
*178 pad_ui_in_buf_I\[5\]\.z
*179 pad_ui_in_buf_I\[6\]\.z
*180 pad_ui_in_buf_I\[7\]\.z
*181 pad_ui_in_buf_I\[8\]\.z
*182 pad_ui_in_buf_I\[9\]\.z
*183 pad_uio_in_buf_I\[0\]\.z
*184 pad_uio_in_buf_I\[1\]\.z
*185 pad_uio_in_buf_I\[2\]\.z
*186 pad_uio_in_buf_I\[3\]\.z
*187 pad_uio_in_buf_I\[4\]\.z
*188 pad_uio_in_buf_I\[5\]\.z
*189 pad_uio_in_buf_I\[6\]\.z
*190 pad_uio_in_buf_I\[7\]\.z
*191 pad_uio_oe_n_buf_I\[0\]\.z
*192 pad_uio_oe_n_buf_I\[1\]\.z
*193 pad_uio_oe_n_buf_I\[2\]\.z
*194 pad_uio_oe_n_buf_I\[3\]\.z
*195 pad_uio_oe_n_buf_I\[4\]\.z
*196 pad_uio_oe_n_buf_I\[5\]\.z
*197 pad_uio_oe_n_buf_I\[6\]\.z
*198 pad_uio_oe_n_buf_I\[7\]\.z
*199 pad_uio_out_buf_I\[0\]\.z
*200 pad_uio_out_buf_I\[1\]\.z
*201 pad_uio_out_buf_I\[2\]\.z
*202 pad_uio_out_buf_I\[3\]\.z
*203 pad_uio_out_buf_I\[4\]\.z
*204 pad_uio_out_buf_I\[5\]\.z
*205 pad_uio_out_buf_I\[6\]\.z
*206 pad_uio_out_buf_I\[7\]\.z
*207 pad_uo_out_buf_I\[0\]\.z
*208 pad_uo_out_buf_I\[1\]\.z
*209 pad_uo_out_buf_I\[2\]\.z
*210 pad_uo_out_buf_I\[3\]\.z
*211 pad_uo_out_buf_I\[4\]\.z
*212 pad_uo_out_buf_I\[5\]\.z
*213 pad_uo_out_buf_I\[6\]\.z
*214 pad_uo_out_buf_I\[7\]\.z
*215 sel_cnt_buf_I\[0\]\.z
*216 sel_cnt_buf_I\[1\]\.z
*217 sel_cnt_buf_I\[2\]\.z
*218 sel_cnt_buf_I\[3\]\.z
*219 sel_cnt_buf_I\[4\]\.z
*220 sel_cnt_buf_I\[5\]\.z
*221 sel_cnt_buf_I\[6\]\.z
*222 sel_cnt_buf_I\[7\]\.z
*223 sel_cnt_buf_I\[8\]\.z
*224 sel_cnt_buf_I\[9\]\.z
*225 FILLER_0_0_109
*226 FILLER_0_0_113
*227 FILLER_0_0_125
*228 FILLER_0_0_137
*229 FILLER_0_0_141
*230 FILLER_0_0_15
*231 FILLER_0_0_153
*232 FILLER_0_0_165
*233 FILLER_0_0_169
*234 FILLER_0_0_181
*235 FILLER_0_0_193
*236 FILLER_0_0_197
*237 FILLER_0_0_209
*238 FILLER_0_0_221
*239 FILLER_0_0_225
*240 FILLER_0_0_237
*241 FILLER_0_0_249
*242 FILLER_0_0_253
*243 FILLER_0_0_26
*244 FILLER_0_0_265
*245 FILLER_0_0_277
*246 FILLER_0_0_281
*247 FILLER_0_0_29
*248 FILLER_0_0_293
*249 FILLER_0_0_3
*250 FILLER_0_0_305
*251 FILLER_0_0_309
*252 FILLER_0_0_321
*253 FILLER_0_0_333
*254 FILLER_0_0_337
*255 FILLER_0_0_348
*256 FILLER_0_0_35
*257 FILLER_0_0_355
*258 FILLER_0_0_363
*259 FILLER_0_0_365
*260 FILLER_0_0_373
*261 FILLER_0_0_40
*262 FILLER_0_0_54
*263 FILLER_0_0_57
*264 FILLER_0_0_69
*265 FILLER_0_0_81
*266 FILLER_0_0_85
*267 FILLER_0_0_97
*268 FILLER_0_10_109
*269 FILLER_0_10_121
*270 FILLER_0_10_133
*271 FILLER_0_10_139
*272 FILLER_0_10_141
*273 FILLER_0_10_15
*274 FILLER_0_10_153
*275 FILLER_0_10_165
*276 FILLER_0_10_177
*277 FILLER_0_10_189
*278 FILLER_0_10_195
*279 FILLER_0_10_197
*280 FILLER_0_10_209
*281 FILLER_0_10_221
*282 FILLER_0_10_233
*283 FILLER_0_10_245
*284 FILLER_0_10_251
*285 FILLER_0_10_253
*286 FILLER_0_10_265
*287 FILLER_0_10_27
*288 FILLER_0_10_277
*289 FILLER_0_10_289
*290 FILLER_0_10_29
*291 FILLER_0_10_3
*292 FILLER_0_10_301
*293 FILLER_0_10_307
*294 FILLER_0_10_309
*295 FILLER_0_10_321
*296 FILLER_0_10_333
*297 FILLER_0_10_345
*298 FILLER_0_10_357
*299 FILLER_0_10_363
*300 FILLER_0_10_365
*301 FILLER_0_10_373
*302 FILLER_0_10_41
*303 FILLER_0_10_53
*304 FILLER_0_10_65
*305 FILLER_0_10_77
*306 FILLER_0_10_83
*307 FILLER_0_10_85
*308 FILLER_0_10_97
*309 FILLER_0_11_105
*310 FILLER_0_11_111
*311 FILLER_0_11_113
*312 FILLER_0_11_125
*313 FILLER_0_11_137
*314 FILLER_0_11_149
*315 FILLER_0_11_15
*316 FILLER_0_11_161
*317 FILLER_0_11_167
*318 FILLER_0_11_169
*319 FILLER_0_11_181
*320 FILLER_0_11_193
*321 FILLER_0_11_205
*322 FILLER_0_11_217
*323 FILLER_0_11_223
*324 FILLER_0_11_225
*325 FILLER_0_11_237
*326 FILLER_0_11_249
*327 FILLER_0_11_261
*328 FILLER_0_11_27
*329 FILLER_0_11_273
*330 FILLER_0_11_279
*331 FILLER_0_11_281
*332 FILLER_0_11_293
*333 FILLER_0_11_3
*334 FILLER_0_11_305
*335 FILLER_0_11_317
*336 FILLER_0_11_329
*337 FILLER_0_11_335
*338 FILLER_0_11_337
*339 FILLER_0_11_349
*340 FILLER_0_11_361
*341 FILLER_0_11_373
*342 FILLER_0_11_39
*343 FILLER_0_11_51
*344 FILLER_0_11_55
*345 FILLER_0_11_57
*346 FILLER_0_11_69
*347 FILLER_0_11_81
*348 FILLER_0_11_93
*349 FILLER_0_12_109
*350 FILLER_0_12_121
*351 FILLER_0_12_133
*352 FILLER_0_12_139
*353 FILLER_0_12_141
*354 FILLER_0_12_15
*355 FILLER_0_12_153
*356 FILLER_0_12_165
*357 FILLER_0_12_177
*358 FILLER_0_12_189
*359 FILLER_0_12_195
*360 FILLER_0_12_197
*361 FILLER_0_12_209
*362 FILLER_0_12_221
*363 FILLER_0_12_233
*364 FILLER_0_12_245
*365 FILLER_0_12_251
*366 FILLER_0_12_253
*367 FILLER_0_12_265
*368 FILLER_0_12_27
*369 FILLER_0_12_277
*370 FILLER_0_12_289
*371 FILLER_0_12_29
*372 FILLER_0_12_3
*373 FILLER_0_12_301
*374 FILLER_0_12_307
*375 FILLER_0_12_309
*376 FILLER_0_12_321
*377 FILLER_0_12_333
*378 FILLER_0_12_345
*379 FILLER_0_12_357
*380 FILLER_0_12_363
*381 FILLER_0_12_365
*382 FILLER_0_12_373
*383 FILLER_0_12_41
*384 FILLER_0_12_53
*385 FILLER_0_12_65
*386 FILLER_0_12_77
*387 FILLER_0_12_83
*388 FILLER_0_12_85
*389 FILLER_0_12_97
*390 FILLER_0_13_105
*391 FILLER_0_13_111
*392 FILLER_0_13_113
*393 FILLER_0_13_125
*394 FILLER_0_13_137
*395 FILLER_0_13_149
*396 FILLER_0_13_15
*397 FILLER_0_13_161
*398 FILLER_0_13_167
*399 FILLER_0_13_169
*400 FILLER_0_13_181
*401 FILLER_0_13_193
*402 FILLER_0_13_205
*403 FILLER_0_13_217
*404 FILLER_0_13_223
*405 FILLER_0_13_225
*406 FILLER_0_13_237
*407 FILLER_0_13_249
*408 FILLER_0_13_261
*409 FILLER_0_13_27
*410 FILLER_0_13_273
*411 FILLER_0_13_279
*412 FILLER_0_13_281
*413 FILLER_0_13_293
*414 FILLER_0_13_3
*415 FILLER_0_13_305
*416 FILLER_0_13_317
*417 FILLER_0_13_329
*418 FILLER_0_13_335
*419 FILLER_0_13_337
*420 FILLER_0_13_349
*421 FILLER_0_13_361
*422 FILLER_0_13_373
*423 FILLER_0_13_39
*424 FILLER_0_13_51
*425 FILLER_0_13_55
*426 FILLER_0_13_57
*427 FILLER_0_13_69
*428 FILLER_0_13_81
*429 FILLER_0_13_93
*430 FILLER_0_14_109
*431 FILLER_0_14_121
*432 FILLER_0_14_133
*433 FILLER_0_14_139
*434 FILLER_0_14_141
*435 FILLER_0_14_15
*436 FILLER_0_14_153
*437 FILLER_0_14_165
*438 FILLER_0_14_177
*439 FILLER_0_14_189
*440 FILLER_0_14_195
*441 FILLER_0_14_197
*442 FILLER_0_14_209
*443 FILLER_0_14_221
*444 FILLER_0_14_233
*445 FILLER_0_14_245
*446 FILLER_0_14_251
*447 FILLER_0_14_253
*448 FILLER_0_14_265
*449 FILLER_0_14_27
*450 FILLER_0_14_277
*451 FILLER_0_14_289
*452 FILLER_0_14_29
*453 FILLER_0_14_3
*454 FILLER_0_14_301
*455 FILLER_0_14_307
*456 FILLER_0_14_309
*457 FILLER_0_14_321
*458 FILLER_0_14_333
*459 FILLER_0_14_345
*460 FILLER_0_14_357
*461 FILLER_0_14_363
*462 FILLER_0_14_365
*463 FILLER_0_14_373
*464 FILLER_0_14_41
*465 FILLER_0_14_53
*466 FILLER_0_14_65
*467 FILLER_0_14_77
*468 FILLER_0_14_83
*469 FILLER_0_14_85
*470 FILLER_0_14_97
*471 FILLER_0_15_105
*472 FILLER_0_15_111
*473 FILLER_0_15_113
*474 FILLER_0_15_125
*475 FILLER_0_15_137
*476 FILLER_0_15_149
*477 FILLER_0_15_15
*478 FILLER_0_15_161
*479 FILLER_0_15_167
*480 FILLER_0_15_169
*481 FILLER_0_15_181
*482 FILLER_0_15_193
*483 FILLER_0_15_205
*484 FILLER_0_15_217
*485 FILLER_0_15_223
*486 FILLER_0_15_225
*487 FILLER_0_15_237
*488 FILLER_0_15_249
*489 FILLER_0_15_261
*490 FILLER_0_15_27
*491 FILLER_0_15_273
*492 FILLER_0_15_279
*493 FILLER_0_15_281
*494 FILLER_0_15_293
*495 FILLER_0_15_3
*496 FILLER_0_15_305
*497 FILLER_0_15_317
*498 FILLER_0_15_329
*499 FILLER_0_15_335
*500 FILLER_0_15_337
*501 FILLER_0_15_349
*502 FILLER_0_15_361
*503 FILLER_0_15_373
*504 FILLER_0_15_39
*505 FILLER_0_15_51
*506 FILLER_0_15_55
*507 FILLER_0_15_57
*508 FILLER_0_15_69
*509 FILLER_0_15_81
*510 FILLER_0_15_93
*511 FILLER_0_16_109
*512 FILLER_0_16_121
*513 FILLER_0_16_133
*514 FILLER_0_16_139
*515 FILLER_0_16_141
*516 FILLER_0_16_15
*517 FILLER_0_16_153
*518 FILLER_0_16_165
*519 FILLER_0_16_177
*520 FILLER_0_16_189
*521 FILLER_0_16_195
*522 FILLER_0_16_197
*523 FILLER_0_16_209
*524 FILLER_0_16_221
*525 FILLER_0_16_233
*526 FILLER_0_16_245
*527 FILLER_0_16_251
*528 FILLER_0_16_253
*529 FILLER_0_16_265
*530 FILLER_0_16_27
*531 FILLER_0_16_277
*532 FILLER_0_16_289
*533 FILLER_0_16_29
*534 FILLER_0_16_3
*535 FILLER_0_16_301
*536 FILLER_0_16_307
*537 FILLER_0_16_309
*538 FILLER_0_16_321
*539 FILLER_0_16_333
*540 FILLER_0_16_345
*541 FILLER_0_16_357
*542 FILLER_0_16_363
*543 FILLER_0_16_365
*544 FILLER_0_16_373
*545 FILLER_0_16_41
*546 FILLER_0_16_53
*547 FILLER_0_16_65
*548 FILLER_0_16_77
*549 FILLER_0_16_83
*550 FILLER_0_16_85
*551 FILLER_0_16_97
*552 FILLER_0_17_105
*553 FILLER_0_17_111
*554 FILLER_0_17_113
*555 FILLER_0_17_125
*556 FILLER_0_17_137
*557 FILLER_0_17_149
*558 FILLER_0_17_15
*559 FILLER_0_17_161
*560 FILLER_0_17_167
*561 FILLER_0_17_169
*562 FILLER_0_17_181
*563 FILLER_0_17_193
*564 FILLER_0_17_205
*565 FILLER_0_17_217
*566 FILLER_0_17_223
*567 FILLER_0_17_225
*568 FILLER_0_17_237
*569 FILLER_0_17_249
*570 FILLER_0_17_261
*571 FILLER_0_17_27
*572 FILLER_0_17_273
*573 FILLER_0_17_279
*574 FILLER_0_17_281
*575 FILLER_0_17_293
*576 FILLER_0_17_3
*577 FILLER_0_17_305
*578 FILLER_0_17_317
*579 FILLER_0_17_329
*580 FILLER_0_17_335
*581 FILLER_0_17_337
*582 FILLER_0_17_349
*583 FILLER_0_17_361
*584 FILLER_0_17_373
*585 FILLER_0_17_39
*586 FILLER_0_17_51
*587 FILLER_0_17_55
*588 FILLER_0_17_57
*589 FILLER_0_17_69
*590 FILLER_0_17_81
*591 FILLER_0_17_93
*592 FILLER_0_18_109
*593 FILLER_0_18_121
*594 FILLER_0_18_133
*595 FILLER_0_18_139
*596 FILLER_0_18_141
*597 FILLER_0_18_15
*598 FILLER_0_18_153
*599 FILLER_0_18_165
*600 FILLER_0_18_177
*601 FILLER_0_18_189
*602 FILLER_0_18_195
*603 FILLER_0_18_197
*604 FILLER_0_18_209
*605 FILLER_0_18_221
*606 FILLER_0_18_233
*607 FILLER_0_18_245
*608 FILLER_0_18_251
*609 FILLER_0_18_253
*610 FILLER_0_18_265
*611 FILLER_0_18_27
*612 FILLER_0_18_277
*613 FILLER_0_18_289
*614 FILLER_0_18_29
*615 FILLER_0_18_3
*616 FILLER_0_18_301
*617 FILLER_0_18_307
*618 FILLER_0_18_309
*619 FILLER_0_18_321
*620 FILLER_0_18_333
*621 FILLER_0_18_345
*622 FILLER_0_18_357
*623 FILLER_0_18_363
*624 FILLER_0_18_365
*625 FILLER_0_18_373
*626 FILLER_0_18_41
*627 FILLER_0_18_53
*628 FILLER_0_18_65
*629 FILLER_0_18_77
*630 FILLER_0_18_83
*631 FILLER_0_18_85
*632 FILLER_0_18_97
*633 FILLER_0_19_105
*634 FILLER_0_19_111
*635 FILLER_0_19_113
*636 FILLER_0_19_125
*637 FILLER_0_19_137
*638 FILLER_0_19_149
*639 FILLER_0_19_15
*640 FILLER_0_19_161
*641 FILLER_0_19_167
*642 FILLER_0_19_169
*643 FILLER_0_19_181
*644 FILLER_0_19_193
*645 FILLER_0_19_205
*646 FILLER_0_19_217
*647 FILLER_0_19_223
*648 FILLER_0_19_225
*649 FILLER_0_19_237
*650 FILLER_0_19_249
*651 FILLER_0_19_261
*652 FILLER_0_19_27
*653 FILLER_0_19_273
*654 FILLER_0_19_279
*655 FILLER_0_19_281
*656 FILLER_0_19_293
*657 FILLER_0_19_3
*658 FILLER_0_19_305
*659 FILLER_0_19_317
*660 FILLER_0_19_329
*661 FILLER_0_19_335
*662 FILLER_0_19_337
*663 FILLER_0_19_349
*664 FILLER_0_19_361
*665 FILLER_0_19_373
*666 FILLER_0_19_39
*667 FILLER_0_19_51
*668 FILLER_0_19_55
*669 FILLER_0_19_57
*670 FILLER_0_19_69
*671 FILLER_0_19_81
*672 FILLER_0_19_93
*673 FILLER_0_1_105
*674 FILLER_0_1_111
*675 FILLER_0_1_113
*676 FILLER_0_1_125
*677 FILLER_0_1_137
*678 FILLER_0_1_149
*679 FILLER_0_1_161
*680 FILLER_0_1_167
*681 FILLER_0_1_169
*682 FILLER_0_1_181
*683 FILLER_0_1_19
*684 FILLER_0_1_193
*685 FILLER_0_1_205
*686 FILLER_0_1_217
*687 FILLER_0_1_223
*688 FILLER_0_1_225
*689 FILLER_0_1_237
*690 FILLER_0_1_249
*691 FILLER_0_1_261
*692 FILLER_0_1_273
*693 FILLER_0_1_279
*694 FILLER_0_1_281
*695 FILLER_0_1_293
*696 FILLER_0_1_3
*697 FILLER_0_1_305
*698 FILLER_0_1_31
*699 FILLER_0_1_317
*700 FILLER_0_1_329
*701 FILLER_0_1_335
*702 FILLER_0_1_337
*703 FILLER_0_1_349
*704 FILLER_0_1_361
*705 FILLER_0_1_37
*706 FILLER_0_1_373
*707 FILLER_0_1_47
*708 FILLER_0_1_55
*709 FILLER_0_1_57
*710 FILLER_0_1_69
*711 FILLER_0_1_81
*712 FILLER_0_1_93
*713 FILLER_0_20_109
*714 FILLER_0_20_121
*715 FILLER_0_20_133
*716 FILLER_0_20_139
*717 FILLER_0_20_141
*718 FILLER_0_20_15
*719 FILLER_0_20_153
*720 FILLER_0_20_165
*721 FILLER_0_20_177
*722 FILLER_0_20_189
*723 FILLER_0_20_195
*724 FILLER_0_20_197
*725 FILLER_0_20_209
*726 FILLER_0_20_221
*727 FILLER_0_20_233
*728 FILLER_0_20_245
*729 FILLER_0_20_251
*730 FILLER_0_20_253
*731 FILLER_0_20_265
*732 FILLER_0_20_27
*733 FILLER_0_20_277
*734 FILLER_0_20_289
*735 FILLER_0_20_29
*736 FILLER_0_20_3
*737 FILLER_0_20_301
*738 FILLER_0_20_307
*739 FILLER_0_20_309
*740 FILLER_0_20_321
*741 FILLER_0_20_333
*742 FILLER_0_20_345
*743 FILLER_0_20_357
*744 FILLER_0_20_363
*745 FILLER_0_20_365
*746 FILLER_0_20_373
*747 FILLER_0_20_41
*748 FILLER_0_20_53
*749 FILLER_0_20_65
*750 FILLER_0_20_77
*751 FILLER_0_20_83
*752 FILLER_0_20_85
*753 FILLER_0_20_97
*754 FILLER_0_21_105
*755 FILLER_0_21_111
*756 FILLER_0_21_113
*757 FILLER_0_21_125
*758 FILLER_0_21_137
*759 FILLER_0_21_149
*760 FILLER_0_21_15
*761 FILLER_0_21_161
*762 FILLER_0_21_167
*763 FILLER_0_21_169
*764 FILLER_0_21_181
*765 FILLER_0_21_193
*766 FILLER_0_21_205
*767 FILLER_0_21_217
*768 FILLER_0_21_223
*769 FILLER_0_21_225
*770 FILLER_0_21_237
*771 FILLER_0_21_249
*772 FILLER_0_21_261
*773 FILLER_0_21_27
*774 FILLER_0_21_273
*775 FILLER_0_21_279
*776 FILLER_0_21_281
*777 FILLER_0_21_293
*778 FILLER_0_21_3
*779 FILLER_0_21_305
*780 FILLER_0_21_317
*781 FILLER_0_21_329
*782 FILLER_0_21_335
*783 FILLER_0_21_337
*784 FILLER_0_21_349
*785 FILLER_0_21_361
*786 FILLER_0_21_373
*787 FILLER_0_21_39
*788 FILLER_0_21_51
*789 FILLER_0_21_55
*790 FILLER_0_21_57
*791 FILLER_0_21_69
*792 FILLER_0_21_81
*793 FILLER_0_21_93
*794 FILLER_0_22_109
*795 FILLER_0_22_121
*796 FILLER_0_22_133
*797 FILLER_0_22_139
*798 FILLER_0_22_141
*799 FILLER_0_22_15
*800 FILLER_0_22_153
*801 FILLER_0_22_165
*802 FILLER_0_22_177
*803 FILLER_0_22_189
*804 FILLER_0_22_195
*805 FILLER_0_22_197
*806 FILLER_0_22_209
*807 FILLER_0_22_221
*808 FILLER_0_22_233
*809 FILLER_0_22_245
*810 FILLER_0_22_251
*811 FILLER_0_22_253
*812 FILLER_0_22_265
*813 FILLER_0_22_27
*814 FILLER_0_22_277
*815 FILLER_0_22_289
*816 FILLER_0_22_29
*817 FILLER_0_22_3
*818 FILLER_0_22_301
*819 FILLER_0_22_307
*820 FILLER_0_22_309
*821 FILLER_0_22_321
*822 FILLER_0_22_333
*823 FILLER_0_22_345
*824 FILLER_0_22_357
*825 FILLER_0_22_363
*826 FILLER_0_22_365
*827 FILLER_0_22_373
*828 FILLER_0_22_41
*829 FILLER_0_22_53
*830 FILLER_0_22_65
*831 FILLER_0_22_77
*832 FILLER_0_22_83
*833 FILLER_0_22_85
*834 FILLER_0_22_97
*835 FILLER_0_23_105
*836 FILLER_0_23_111
*837 FILLER_0_23_113
*838 FILLER_0_23_125
*839 FILLER_0_23_137
*840 FILLER_0_23_149
*841 FILLER_0_23_15
*842 FILLER_0_23_161
*843 FILLER_0_23_167
*844 FILLER_0_23_169
*845 FILLER_0_23_181
*846 FILLER_0_23_193
*847 FILLER_0_23_205
*848 FILLER_0_23_217
*849 FILLER_0_23_223
*850 FILLER_0_23_225
*851 FILLER_0_23_237
*852 FILLER_0_23_249
*853 FILLER_0_23_261
*854 FILLER_0_23_27
*855 FILLER_0_23_273
*856 FILLER_0_23_279
*857 FILLER_0_23_281
*858 FILLER_0_23_293
*859 FILLER_0_23_3
*860 FILLER_0_23_305
*861 FILLER_0_23_317
*862 FILLER_0_23_329
*863 FILLER_0_23_335
*864 FILLER_0_23_337
*865 FILLER_0_23_349
*866 FILLER_0_23_361
*867 FILLER_0_23_373
*868 FILLER_0_23_39
*869 FILLER_0_23_51
*870 FILLER_0_23_55
*871 FILLER_0_23_57
*872 FILLER_0_23_69
*873 FILLER_0_23_81
*874 FILLER_0_23_93
*875 FILLER_0_24_109
*876 FILLER_0_24_121
*877 FILLER_0_24_133
*878 FILLER_0_24_139
*879 FILLER_0_24_141
*880 FILLER_0_24_15
*881 FILLER_0_24_153
*882 FILLER_0_24_165
*883 FILLER_0_24_177
*884 FILLER_0_24_189
*885 FILLER_0_24_195
*886 FILLER_0_24_197
*887 FILLER_0_24_209
*888 FILLER_0_24_221
*889 FILLER_0_24_233
*890 FILLER_0_24_245
*891 FILLER_0_24_251
*892 FILLER_0_24_253
*893 FILLER_0_24_265
*894 FILLER_0_24_27
*895 FILLER_0_24_277
*896 FILLER_0_24_289
*897 FILLER_0_24_29
*898 FILLER_0_24_3
*899 FILLER_0_24_301
*900 FILLER_0_24_307
*901 FILLER_0_24_309
*902 FILLER_0_24_321
*903 FILLER_0_24_333
*904 FILLER_0_24_345
*905 FILLER_0_24_357
*906 FILLER_0_24_363
*907 FILLER_0_24_365
*908 FILLER_0_24_373
*909 FILLER_0_24_41
*910 FILLER_0_24_53
*911 FILLER_0_24_65
*912 FILLER_0_24_77
*913 FILLER_0_24_83
*914 FILLER_0_24_85
*915 FILLER_0_24_97
*916 FILLER_0_25_105
*917 FILLER_0_25_111
*918 FILLER_0_25_113
*919 FILLER_0_25_125
*920 FILLER_0_25_137
*921 FILLER_0_25_149
*922 FILLER_0_25_15
*923 FILLER_0_25_161
*924 FILLER_0_25_167
*925 FILLER_0_25_169
*926 FILLER_0_25_181
*927 FILLER_0_25_193
*928 FILLER_0_25_205
*929 FILLER_0_25_217
*930 FILLER_0_25_223
*931 FILLER_0_25_225
*932 FILLER_0_25_237
*933 FILLER_0_25_249
*934 FILLER_0_25_261
*935 FILLER_0_25_27
*936 FILLER_0_25_273
*937 FILLER_0_25_279
*938 FILLER_0_25_281
*939 FILLER_0_25_293
*940 FILLER_0_25_3
*941 FILLER_0_25_305
*942 FILLER_0_25_317
*943 FILLER_0_25_329
*944 FILLER_0_25_335
*945 FILLER_0_25_337
*946 FILLER_0_25_349
*947 FILLER_0_25_361
*948 FILLER_0_25_373
*949 FILLER_0_25_39
*950 FILLER_0_25_51
*951 FILLER_0_25_55
*952 FILLER_0_25_57
*953 FILLER_0_25_69
*954 FILLER_0_25_81
*955 FILLER_0_25_93
*956 FILLER_0_26_109
*957 FILLER_0_26_121
*958 FILLER_0_26_133
*959 FILLER_0_26_139
*960 FILLER_0_26_141
*961 FILLER_0_26_15
*962 FILLER_0_26_153
*963 FILLER_0_26_165
*964 FILLER_0_26_177
*965 FILLER_0_26_189
*966 FILLER_0_26_195
*967 FILLER_0_26_197
*968 FILLER_0_26_209
*969 FILLER_0_26_221
*970 FILLER_0_26_233
*971 FILLER_0_26_245
*972 FILLER_0_26_251
*973 FILLER_0_26_253
*974 FILLER_0_26_265
*975 FILLER_0_26_27
*976 FILLER_0_26_277
*977 FILLER_0_26_289
*978 FILLER_0_26_29
*979 FILLER_0_26_3
*980 FILLER_0_26_301
*981 FILLER_0_26_307
*982 FILLER_0_26_309
*983 FILLER_0_26_321
*984 FILLER_0_26_333
*985 FILLER_0_26_345
*986 FILLER_0_26_357
*987 FILLER_0_26_363
*988 FILLER_0_26_365
*989 FILLER_0_26_373
*990 FILLER_0_26_41
*991 FILLER_0_26_53
*992 FILLER_0_26_65
*993 FILLER_0_26_77
*994 FILLER_0_26_83
*995 FILLER_0_26_85
*996 FILLER_0_26_97
*997 FILLER_0_27_105
*998 FILLER_0_27_111
*999 FILLER_0_27_113
*1000 FILLER_0_27_125
*1001 FILLER_0_27_137
*1002 FILLER_0_27_149
*1003 FILLER_0_27_15
*1004 FILLER_0_27_161
*1005 FILLER_0_27_167
*1006 FILLER_0_27_169
*1007 FILLER_0_27_181
*1008 FILLER_0_27_193
*1009 FILLER_0_27_205
*1010 FILLER_0_27_217
*1011 FILLER_0_27_223
*1012 FILLER_0_27_225
*1013 FILLER_0_27_237
*1014 FILLER_0_27_249
*1015 FILLER_0_27_261
*1016 FILLER_0_27_27
*1017 FILLER_0_27_273
*1018 FILLER_0_27_279
*1019 FILLER_0_27_281
*1020 FILLER_0_27_293
*1021 FILLER_0_27_3
*1022 FILLER_0_27_305
*1023 FILLER_0_27_317
*1024 FILLER_0_27_329
*1025 FILLER_0_27_335
*1026 FILLER_0_27_337
*1027 FILLER_0_27_349
*1028 FILLER_0_27_361
*1029 FILLER_0_27_373
*1030 FILLER_0_27_39
*1031 FILLER_0_27_51
*1032 FILLER_0_27_55
*1033 FILLER_0_27_57
*1034 FILLER_0_27_69
*1035 FILLER_0_27_81
*1036 FILLER_0_27_93
*1037 FILLER_0_28_109
*1038 FILLER_0_28_121
*1039 FILLER_0_28_133
*1040 FILLER_0_28_139
*1041 FILLER_0_28_141
*1042 FILLER_0_28_15
*1043 FILLER_0_28_153
*1044 FILLER_0_28_165
*1045 FILLER_0_28_177
*1046 FILLER_0_28_189
*1047 FILLER_0_28_195
*1048 FILLER_0_28_197
*1049 FILLER_0_28_209
*1050 FILLER_0_28_221
*1051 FILLER_0_28_233
*1052 FILLER_0_28_245
*1053 FILLER_0_28_251
*1054 FILLER_0_28_253
*1055 FILLER_0_28_265
*1056 FILLER_0_28_27
*1057 FILLER_0_28_277
*1058 FILLER_0_28_289
*1059 FILLER_0_28_29
*1060 FILLER_0_28_3
*1061 FILLER_0_28_301
*1062 FILLER_0_28_307
*1063 FILLER_0_28_309
*1064 FILLER_0_28_321
*1065 FILLER_0_28_333
*1066 FILLER_0_28_345
*1067 FILLER_0_28_357
*1068 FILLER_0_28_363
*1069 FILLER_0_28_365
*1070 FILLER_0_28_373
*1071 FILLER_0_28_41
*1072 FILLER_0_28_53
*1073 FILLER_0_28_65
*1074 FILLER_0_28_77
*1075 FILLER_0_28_83
*1076 FILLER_0_28_85
*1077 FILLER_0_28_97
*1078 FILLER_0_29_105
*1079 FILLER_0_29_111
*1080 FILLER_0_29_113
*1081 FILLER_0_29_125
*1082 FILLER_0_29_137
*1083 FILLER_0_29_149
*1084 FILLER_0_29_15
*1085 FILLER_0_29_161
*1086 FILLER_0_29_167
*1087 FILLER_0_29_169
*1088 FILLER_0_29_181
*1089 FILLER_0_29_193
*1090 FILLER_0_29_205
*1091 FILLER_0_29_217
*1092 FILLER_0_29_223
*1093 FILLER_0_29_225
*1094 FILLER_0_29_237
*1095 FILLER_0_29_249
*1096 FILLER_0_29_261
*1097 FILLER_0_29_27
*1098 FILLER_0_29_273
*1099 FILLER_0_29_279
*1100 FILLER_0_29_281
*1101 FILLER_0_29_293
*1102 FILLER_0_29_3
*1103 FILLER_0_29_305
*1104 FILLER_0_29_317
*1105 FILLER_0_29_329
*1106 FILLER_0_29_335
*1107 FILLER_0_29_337
*1108 FILLER_0_29_349
*1109 FILLER_0_29_361
*1110 FILLER_0_29_373
*1111 FILLER_0_29_39
*1112 FILLER_0_29_51
*1113 FILLER_0_29_55
*1114 FILLER_0_29_57
*1115 FILLER_0_29_69
*1116 FILLER_0_29_81
*1117 FILLER_0_29_93
*1118 FILLER_0_2_109
*1119 FILLER_0_2_121
*1120 FILLER_0_2_133
*1121 FILLER_0_2_139
*1122 FILLER_0_2_141
*1123 FILLER_0_2_15
*1124 FILLER_0_2_153
*1125 FILLER_0_2_165
*1126 FILLER_0_2_177
*1127 FILLER_0_2_189
*1128 FILLER_0_2_195
*1129 FILLER_0_2_197
*1130 FILLER_0_2_209
*1131 FILLER_0_2_221
*1132 FILLER_0_2_233
*1133 FILLER_0_2_245
*1134 FILLER_0_2_251
*1135 FILLER_0_2_253
*1136 FILLER_0_2_265
*1137 FILLER_0_2_27
*1138 FILLER_0_2_277
*1139 FILLER_0_2_289
*1140 FILLER_0_2_29
*1141 FILLER_0_2_3
*1142 FILLER_0_2_301
*1143 FILLER_0_2_307
*1144 FILLER_0_2_309
*1145 FILLER_0_2_321
*1146 FILLER_0_2_333
*1147 FILLER_0_2_345
*1148 FILLER_0_2_357
*1149 FILLER_0_2_36
*1150 FILLER_0_2_363
*1151 FILLER_0_2_365
*1152 FILLER_0_2_373
*1153 FILLER_0_2_48
*1154 FILLER_0_2_60
*1155 FILLER_0_2_72
*1156 FILLER_0_2_85
*1157 FILLER_0_2_97
*1158 FILLER_0_30_109
*1159 FILLER_0_30_121
*1160 FILLER_0_30_133
*1161 FILLER_0_30_139
*1162 FILLER_0_30_141
*1163 FILLER_0_30_15
*1164 FILLER_0_30_153
*1165 FILLER_0_30_165
*1166 FILLER_0_30_177
*1167 FILLER_0_30_189
*1168 FILLER_0_30_195
*1169 FILLER_0_30_197
*1170 FILLER_0_30_209
*1171 FILLER_0_30_221
*1172 FILLER_0_30_233
*1173 FILLER_0_30_245
*1174 FILLER_0_30_251
*1175 FILLER_0_30_253
*1176 FILLER_0_30_265
*1177 FILLER_0_30_27
*1178 FILLER_0_30_277
*1179 FILLER_0_30_289
*1180 FILLER_0_30_29
*1181 FILLER_0_30_3
*1182 FILLER_0_30_301
*1183 FILLER_0_30_307
*1184 FILLER_0_30_309
*1185 FILLER_0_30_321
*1186 FILLER_0_30_333
*1187 FILLER_0_30_345
*1188 FILLER_0_30_357
*1189 FILLER_0_30_363
*1190 FILLER_0_30_365
*1191 FILLER_0_30_373
*1192 FILLER_0_30_41
*1193 FILLER_0_30_53
*1194 FILLER_0_30_65
*1195 FILLER_0_30_77
*1196 FILLER_0_30_83
*1197 FILLER_0_30_85
*1198 FILLER_0_30_97
*1199 FILLER_0_31_105
*1200 FILLER_0_31_111
*1201 FILLER_0_31_113
*1202 FILLER_0_31_125
*1203 FILLER_0_31_137
*1204 FILLER_0_31_149
*1205 FILLER_0_31_15
*1206 FILLER_0_31_161
*1207 FILLER_0_31_167
*1208 FILLER_0_31_169
*1209 FILLER_0_31_181
*1210 FILLER_0_31_193
*1211 FILLER_0_31_205
*1212 FILLER_0_31_217
*1213 FILLER_0_31_223
*1214 FILLER_0_31_225
*1215 FILLER_0_31_237
*1216 FILLER_0_31_249
*1217 FILLER_0_31_261
*1218 FILLER_0_31_27
*1219 FILLER_0_31_273
*1220 FILLER_0_31_279
*1221 FILLER_0_31_281
*1222 FILLER_0_31_293
*1223 FILLER_0_31_3
*1224 FILLER_0_31_305
*1225 FILLER_0_31_317
*1226 FILLER_0_31_329
*1227 FILLER_0_31_335
*1228 FILLER_0_31_337
*1229 FILLER_0_31_349
*1230 FILLER_0_31_361
*1231 FILLER_0_31_373
*1232 FILLER_0_31_39
*1233 FILLER_0_31_51
*1234 FILLER_0_31_55
*1235 FILLER_0_31_57
*1236 FILLER_0_31_69
*1237 FILLER_0_31_81
*1238 FILLER_0_31_93
*1239 FILLER_0_32_109
*1240 FILLER_0_32_121
*1241 FILLER_0_32_133
*1242 FILLER_0_32_139
*1243 FILLER_0_32_141
*1244 FILLER_0_32_15
*1245 FILLER_0_32_153
*1246 FILLER_0_32_165
*1247 FILLER_0_32_177
*1248 FILLER_0_32_189
*1249 FILLER_0_32_195
*1250 FILLER_0_32_197
*1251 FILLER_0_32_209
*1252 FILLER_0_32_221
*1253 FILLER_0_32_233
*1254 FILLER_0_32_245
*1255 FILLER_0_32_251
*1256 FILLER_0_32_253
*1257 FILLER_0_32_265
*1258 FILLER_0_32_27
*1259 FILLER_0_32_277
*1260 FILLER_0_32_289
*1261 FILLER_0_32_29
*1262 FILLER_0_32_3
*1263 FILLER_0_32_301
*1264 FILLER_0_32_307
*1265 FILLER_0_32_309
*1266 FILLER_0_32_321
*1267 FILLER_0_32_333
*1268 FILLER_0_32_345
*1269 FILLER_0_32_357
*1270 FILLER_0_32_363
*1271 FILLER_0_32_365
*1272 FILLER_0_32_373
*1273 FILLER_0_32_41
*1274 FILLER_0_32_53
*1275 FILLER_0_32_65
*1276 FILLER_0_32_77
*1277 FILLER_0_32_83
*1278 FILLER_0_32_85
*1279 FILLER_0_32_97
*1280 FILLER_0_33_105
*1281 FILLER_0_33_111
*1282 FILLER_0_33_113
*1283 FILLER_0_33_125
*1284 FILLER_0_33_137
*1285 FILLER_0_33_149
*1286 FILLER_0_33_15
*1287 FILLER_0_33_161
*1288 FILLER_0_33_167
*1289 FILLER_0_33_169
*1290 FILLER_0_33_181
*1291 FILLER_0_33_193
*1292 FILLER_0_33_205
*1293 FILLER_0_33_217
*1294 FILLER_0_33_223
*1295 FILLER_0_33_225
*1296 FILLER_0_33_237
*1297 FILLER_0_33_249
*1298 FILLER_0_33_261
*1299 FILLER_0_33_27
*1300 FILLER_0_33_273
*1301 FILLER_0_33_279
*1302 FILLER_0_33_281
*1303 FILLER_0_33_293
*1304 FILLER_0_33_3
*1305 FILLER_0_33_305
*1306 FILLER_0_33_317
*1307 FILLER_0_33_329
*1308 FILLER_0_33_335
*1309 FILLER_0_33_337
*1310 FILLER_0_33_349
*1311 FILLER_0_33_361
*1312 FILLER_0_33_373
*1313 FILLER_0_33_39
*1314 FILLER_0_33_51
*1315 FILLER_0_33_55
*1316 FILLER_0_33_57
*1317 FILLER_0_33_69
*1318 FILLER_0_33_81
*1319 FILLER_0_33_93
*1320 FILLER_0_34_109
*1321 FILLER_0_34_121
*1322 FILLER_0_34_133
*1323 FILLER_0_34_139
*1324 FILLER_0_34_141
*1325 FILLER_0_34_15
*1326 FILLER_0_34_153
*1327 FILLER_0_34_165
*1328 FILLER_0_34_177
*1329 FILLER_0_34_189
*1330 FILLER_0_34_195
*1331 FILLER_0_34_197
*1332 FILLER_0_34_209
*1333 FILLER_0_34_221
*1334 FILLER_0_34_233
*1335 FILLER_0_34_245
*1336 FILLER_0_34_251
*1337 FILLER_0_34_253
*1338 FILLER_0_34_265
*1339 FILLER_0_34_27
*1340 FILLER_0_34_277
*1341 FILLER_0_34_289
*1342 FILLER_0_34_29
*1343 FILLER_0_34_3
*1344 FILLER_0_34_301
*1345 FILLER_0_34_307
*1346 FILLER_0_34_309
*1347 FILLER_0_34_321
*1348 FILLER_0_34_333
*1349 FILLER_0_34_345
*1350 FILLER_0_34_357
*1351 FILLER_0_34_363
*1352 FILLER_0_34_365
*1353 FILLER_0_34_373
*1354 FILLER_0_34_41
*1355 FILLER_0_34_53
*1356 FILLER_0_34_65
*1357 FILLER_0_34_77
*1358 FILLER_0_34_83
*1359 FILLER_0_34_85
*1360 FILLER_0_34_97
*1361 FILLER_0_35_105
*1362 FILLER_0_35_111
*1363 FILLER_0_35_113
*1364 FILLER_0_35_125
*1365 FILLER_0_35_137
*1366 FILLER_0_35_144
*1367 FILLER_0_35_15
*1368 FILLER_0_35_152
*1369 FILLER_0_35_156
*1370 FILLER_0_35_169
*1371 FILLER_0_35_181
*1372 FILLER_0_35_193
*1373 FILLER_0_35_201
*1374 FILLER_0_35_207
*1375 FILLER_0_35_215
*1376 FILLER_0_35_222
*1377 FILLER_0_35_225
*1378 FILLER_0_35_237
*1379 FILLER_0_35_249
*1380 FILLER_0_35_261
*1381 FILLER_0_35_27
*1382 FILLER_0_35_273
*1383 FILLER_0_35_279
*1384 FILLER_0_35_281
*1385 FILLER_0_35_293
*1386 FILLER_0_35_3
*1387 FILLER_0_35_305
*1388 FILLER_0_35_317
*1389 FILLER_0_35_329
*1390 FILLER_0_35_335
*1391 FILLER_0_35_337
*1392 FILLER_0_35_349
*1393 FILLER_0_35_361
*1394 FILLER_0_35_373
*1395 FILLER_0_35_39
*1396 FILLER_0_35_48
*1397 FILLER_0_35_57
*1398 FILLER_0_35_69
*1399 FILLER_0_35_81
*1400 FILLER_0_35_93
*1401 FILLER_0_36_109
*1402 FILLER_0_36_121
*1403 FILLER_0_36_133
*1404 FILLER_0_36_139
*1405 FILLER_0_36_141
*1406 FILLER_0_36_15
*1407 FILLER_0_36_153
*1408 FILLER_0_36_167
*1409 FILLER_0_36_177
*1410 FILLER_0_36_189
*1411 FILLER_0_36_195
*1412 FILLER_0_36_197
*1413 FILLER_0_36_209
*1414 FILLER_0_36_221
*1415 FILLER_0_36_233
*1416 FILLER_0_36_245
*1417 FILLER_0_36_251
*1418 FILLER_0_36_253
*1419 FILLER_0_36_265
*1420 FILLER_0_36_27
*1421 FILLER_0_36_277
*1422 FILLER_0_36_285
*1423 FILLER_0_36_29
*1424 FILLER_0_36_293
*1425 FILLER_0_36_3
*1426 FILLER_0_36_305
*1427 FILLER_0_36_309