*SPEF "ieee 1481-1999"
*DESIGN "tt_mux"
*DATE "11:11:11 Fri 11 11, 1111"
*VENDOR "OpenRCX"
*PROGRAM "Parallel Extraction"
*VERSION "1.0"
*DESIGN_FLOW "NAME_SCOPE LOCAL" "PIN_CAP NONE"
*DIVIDER /
*DELIMITER :
*BUS_DELIMITER []
*T_UNIT 1 NS
*C_UNIT 1 PF
*R_UNIT 1 OHM
*L_UNIT 1 HENRY

*NAME_MAP
*1 addr[0]
*2 addr[1]
*3 addr[2]
*4 addr[3]
*5 addr[4]
*6 net552
*7 net517
*8 spine_iw[0]
*9 spine_iw[10]
*10 spine_iw[11]
*11 spine_iw[12]
*12 spine_iw[13]
*13 spine_iw[14]
*14 spine_iw[15]
*15 spine_iw[16]
*16 spine_iw[17]
*17 spine_iw[18]
*18 spine_iw[19]
*19 spine_iw[1]
*20 spine_iw[20]
*21 spine_iw[21]
*22 spine_iw[22]
*23 spine_iw[23]
*24 spine_iw[24]
*25 spine_iw[25]
*26 spine_iw[26]
*27 spine_iw[27]
*28 spine_iw[28]
*29 spine_iw[29]
*30 spine_iw[2]
*31 spine_iw[30]
*32 spine_iw[3]
*33 spine_iw[4]
*34 spine_iw[5]
*35 spine_iw[6]
*36 spine_iw[7]
*37 spine_iw[8]
*38 spine_iw[9]
*39 net518
*40 spine_ow[10]
*41 spine_ow[11]
*42 spine_ow[12]
*43 spine_ow[13]
*44 spine_ow[14]
*45 spine_ow[15]
*46 spine_ow[16]
*47 spine_ow[17]
*48 spine_ow[18]
*49 spine_ow[19]
*50 spine_ow[1]
*51 spine_ow[20]
*52 spine_ow[21]
*53 spine_ow[22]
*54 spine_ow[23]
*55 spine_ow[24]
*56 net519
*57 spine_ow[2]
*58 spine_ow[3]
*59 spine_ow[4]
*60 spine_ow[5]
*61 spine_ow[6]
*62 spine_ow[7]
*63 spine_ow[8]
*64 spine_ow[9]
*65 um_ena[0]
*66 um_ena[10]
*67 um_ena[11]
*68 um_ena[12]
*69 um_ena[13]
*70 um_ena[14]
*71 um_ena[15]
*72 um_ena[1]
*73 um_ena[2]
*74 um_ena[3]
*75 um_ena[4]
*76 um_ena[5]
*77 um_ena[6]
*78 um_ena[7]
*79 um_ena[8]
*80 um_ena[9]
*81 um_iw[0]
*82 um_iw[100]
*83 um_iw[101]
*84 um_iw[102]
*85 um_iw[103]
*86 um_iw[104]
*87 um_iw[105]
*88 um_iw[106]
*89 um_iw[107]
*90 um_iw[108]
*91 um_iw[109]
*92 um_iw[10]
*93 um_iw[110]
*94 um_iw[111]
*95 um_iw[112]
*96 um_iw[113]
*97 um_iw[114]
*98 um_iw[115]
*99 um_iw[116]
*100 um_iw[117]
*101 um_iw[118]
*102 um_iw[119]
*103 um_iw[11]
*104 um_iw[120]
*105 um_iw[121]
*106 um_iw[122]
*107 um_iw[123]
*108 um_iw[124]
*109 um_iw[125]
*110 um_iw[126]
*111 um_iw[127]
*112 um_iw[128]
*113 um_iw[129]
*114 um_iw[12]
*115 um_iw[130]
*116 um_iw[131]
*117 um_iw[132]
*118 um_iw[133]
*119 um_iw[134]
*120 um_iw[135]
*121 um_iw[136]
*122 um_iw[137]
*123 um_iw[138]
*124 um_iw[139]
*125 um_iw[13]
*126 um_iw[140]
*127 um_iw[141]
*128 um_iw[142]
*129 um_iw[143]
*130 um_iw[144]
*131 um_iw[145]
*132 um_iw[146]
*133 um_iw[147]
*134 um_iw[148]
*135 um_iw[149]
*136 um_iw[14]
*137 um_iw[150]
*138 um_iw[151]
*139 um_iw[152]
*140 um_iw[153]
*141 um_iw[154]
*142 um_iw[155]
*143 um_iw[156]
*144 um_iw[157]
*145 um_iw[158]
*146 um_iw[159]
*147 um_iw[15]
*148 um_iw[160]
*149 um_iw[161]
*150 um_iw[162]
*151 um_iw[163]
*152 um_iw[164]
*153 um_iw[165]
*154 um_iw[166]
*155 um_iw[167]
*156 um_iw[168]
*157 um_iw[169]
*158 um_iw[16]
*159 um_iw[170]
*160 um_iw[171]
*161 um_iw[172]
*162 um_iw[173]
*163 um_iw[174]
*164 um_iw[175]
*165 um_iw[176]
*166 um_iw[177]
*167 um_iw[178]
*168 um_iw[179]
*169 um_iw[17]
*170 um_iw[180]
*171 um_iw[181]
*172 um_iw[182]
*173 um_iw[183]
*174 um_iw[184]
*175 um_iw[185]
*176 um_iw[186]
*177 um_iw[187]
*178 um_iw[188]
*179 um_iw[189]
*180 um_iw[18]
*181 um_iw[190]
*182 um_iw[191]
*183 um_iw[192]
*184 um_iw[193]
*185 um_iw[194]
*186 um_iw[195]
*187 um_iw[196]
*188 um_iw[197]
*189 um_iw[198]
*190 um_iw[199]
*191 um_iw[19]
*192 um_iw[1]
*193 um_iw[200]
*194 um_iw[201]
*195 um_iw[202]
*196 um_iw[203]
*197 um_iw[204]
*198 um_iw[205]
*199 um_iw[206]
*200 um_iw[207]
*201 um_iw[208]
*202 um_iw[209]
*203 um_iw[20]
*204 um_iw[210]
*205 um_iw[211]
*206 um_iw[212]
*207 um_iw[213]
*208 um_iw[214]
*209 um_iw[215]
*210 um_iw[216]
*211 um_iw[217]
*212 um_iw[218]
*213 um_iw[219]
*214 um_iw[21]
*215 um_iw[220]
*216 um_iw[221]
*217 um_iw[222]
*218 um_iw[223]
*219 um_iw[224]
*220 um_iw[225]
*221 um_iw[226]
*222 um_iw[227]
*223 um_iw[228]
*224 um_iw[229]
*225 um_iw[22]
*226 um_iw[230]
*227 um_iw[231]
*228 um_iw[232]
*229 um_iw[233]
*230 um_iw[234]
*231 um_iw[235]
*232 um_iw[236]
*233 um_iw[237]
*234 um_iw[238]
*235 um_iw[239]
*236 um_iw[23]
*237 um_iw[240]
*238 um_iw[241]
*239 um_iw[242]
*240 um_iw[243]
*241 um_iw[244]
*242 um_iw[245]
*243 um_iw[246]
*244 um_iw[247]
*245 um_iw[248]
*246 um_iw[249]
*247 um_iw[24]
*248 um_iw[250]
*249 um_iw[251]
*250 um_iw[252]
*251 um_iw[253]
*252 um_iw[254]
*253 um_iw[255]
*254 um_iw[256]
*255 um_iw[257]
*256 um_iw[258]
*257 um_iw[259]
*258 um_iw[25]
*259 um_iw[260]
*260 um_iw[261]
*261 um_iw[262]
*262 um_iw[263]
*263 um_iw[264]
*264 um_iw[265]
*265 um_iw[266]
*266 um_iw[267]
*267 um_iw[268]
*268 um_iw[269]
*269 um_iw[26]
*270 um_iw[270]
*271 um_iw[271]
*272 um_iw[272]
*273 um_iw[273]
*274 um_iw[274]
*275 um_iw[275]
*276 um_iw[276]
*277 um_iw[277]
*278 um_iw[278]
*279 um_iw[279]
*280 um_iw[27]
*281 um_iw[280]
*282 um_iw[281]
*283 um_iw[282]
*284 um_iw[283]
*285 um_iw[284]
*286 um_iw[285]
*287 um_iw[286]
*288 um_iw[287]
*289 um_iw[28]
*290 um_iw[29]
*291 um_iw[2]
*292 um_iw[30]
*293 um_iw[31]
*294 um_iw[32]
*295 um_iw[33]
*296 um_iw[34]
*297 um_iw[35]
*298 um_iw[36]
*299 um_iw[37]
*300 um_iw[38]
*301 um_iw[39]
*302 um_iw[3]
*303 um_iw[40]
*304 um_iw[41]
*305 um_iw[42]
*306 um_iw[43]
*307 um_iw[44]
*308 um_iw[45]
*309 um_iw[46]
*310 um_iw[47]
*311 um_iw[48]
*312 um_iw[49]
*313 um_iw[4]
*314 um_iw[50]
*315 um_iw[51]
*316 um_iw[52]
*317 um_iw[53]
*318 um_iw[54]
*319 um_iw[55]
*320 um_iw[56]
*321 um_iw[57]
*322 um_iw[58]
*323 um_iw[59]
*324 um_iw[5]
*325 um_iw[60]
*326 um_iw[61]
*327 um_iw[62]
*328 um_iw[63]
*329 um_iw[64]
*330 um_iw[65]
*331 um_iw[66]
*332 um_iw[67]
*333 um_iw[68]
*334 um_iw[69]
*335 um_iw[6]
*336 um_iw[70]
*337 um_iw[71]
*338 um_iw[72]
*339 um_iw[73]
*340 um_iw[74]
*341 um_iw[75]
*342 um_iw[76]
*343 um_iw[77]
*344 um_iw[78]
*345 um_iw[79]
*346 um_iw[7]
*347 um_iw[80]
*348 um_iw[81]
*349 um_iw[82]
*350 um_iw[83]
*351 um_iw[84]
*352 um_iw[85]
*353 um_iw[86]
*354 um_iw[87]
*355 um_iw[88]
*356 um_iw[89]
*357 um_iw[8]
*358 um_iw[90]
*359 um_iw[91]
*360 um_iw[92]
*361 um_iw[93]
*362 um_iw[94]
*363 um_iw[95]
*364 um_iw[96]
*365 um_iw[97]
*366 um_iw[98]
*367 um_iw[99]
*368 um_iw[9]
*369 net520
*370 net530
*371 net531
*372 net532
*373 net533
*374 net534
*375 net535
*376 net521
*377 net522
*378 net523
*379 net524
*380 net525
*381 net526
*382 net527
*383 net528
*384 net529
*385 um_ow[0]
*386 um_ow[100]
*387 um_ow[101]
*388 um_ow[102]
*389 um_ow[103]
*390 um_ow[104]
*391 um_ow[105]
*392 um_ow[106]
*393 um_ow[107]
*394 um_ow[108]
*395 um_ow[109]
*396 um_ow[10]
*397 um_ow[110]
*398 um_ow[111]
*399 um_ow[112]
*400 um_ow[113]
*401 um_ow[114]
*402 um_ow[115]
*403 um_ow[116]
*404 um_ow[117]
*405 um_ow[118]
*406 um_ow[119]
*407 um_ow[11]
*408 um_ow[120]
*409 um_ow[121]
*410 um_ow[122]
*411 um_ow[123]
*412 um_ow[124]
*413 um_ow[125]
*414 um_ow[126]
*415 um_ow[127]
*416 um_ow[128]
*417 um_ow[129]
*418 um_ow[12]
*419 um_ow[130]
*420 um_ow[131]
*421 um_ow[132]
*422 um_ow[133]
*423 um_ow[134]
*424 um_ow[135]
*425 um_ow[136]
*426 um_ow[137]
*427 um_ow[138]
*428 um_ow[139]
*429 um_ow[13]
*430 um_ow[140]
*431 um_ow[141]
*432 um_ow[142]
*433 um_ow[143]
*434 um_ow[144]
*435 um_ow[145]
*436 um_ow[146]
*437 um_ow[147]
*438 um_ow[148]
*439 um_ow[149]
*440 um_ow[14]
*441 um_ow[150]
*442 um_ow[151]
*443 um_ow[152]
*444 um_ow[153]
*445 um_ow[154]
*446 um_ow[155]
*447 um_ow[156]
*448 um_ow[157]
*449 um_ow[158]
*450 um_ow[159]
*451 um_ow[15]
*452 um_ow[160]
*453 um_ow[161]
*454 um_ow[162]
*455 um_ow[163]
*456 um_ow[164]
*457 um_ow[165]
*458 um_ow[166]
*459 um_ow[167]
*460 um_ow[168]
*461 um_ow[169]
*462 um_ow[16]
*463 um_ow[170]
*464 um_ow[171]
*465 um_ow[172]
*466 um_ow[173]
*467 um_ow[174]
*468 um_ow[175]
*469 um_ow[176]
*470 um_ow[177]
*471 um_ow[178]
*472 um_ow[179]
*473 um_ow[17]
*474 um_ow[180]
*475 um_ow[181]
*476 um_ow[182]
*477 um_ow[183]
*478 um_ow[184]
*479 um_ow[185]
*480 um_ow[186]
*481 um_ow[187]
*482 um_ow[188]
*483 um_ow[189]
*484 um_ow[18]
*485 um_ow[190]
*486 um_ow[191]
*487 um_ow[192]
*488 um_ow[193]
*489 um_ow[194]
*490 um_ow[195]
*491 um_ow[196]
*492 um_ow[197]
*493 um_ow[198]
*494 um_ow[199]
*495 um_ow[19]
*496 um_ow[1]
*497 um_ow[200]
*498 um_ow[201]
*499 um_ow[202]
*500 um_ow[203]
*501 um_ow[204]
*502 um_ow[205]
*503 um_ow[206]
*504 um_ow[207]
*505 um_ow[208]
*506 um_ow[209]
*507 um_ow[20]
*508 um_ow[210]
*509 um_ow[211]
*510 um_ow[212]
*511 um_ow[213]
*512 um_ow[214]
*513 um_ow[215]
*514 um_ow[216]
*515 um_ow[217]
*516 um_ow[218]
*517 um_ow[219]
*518 um_ow[21]
*519 um_ow[220]
*520 um_ow[221]
*521 um_ow[222]
*522 um_ow[223]
*523 um_ow[224]
*524 um_ow[225]
*525 um_ow[226]
*526 um_ow[227]
*527 um_ow[228]
*528 um_ow[229]
*529 um_ow[22]
*530 um_ow[230]
*531 um_ow[231]
*532 um_ow[232]
*533 um_ow[233]
*534 um_ow[234]
*535 um_ow[235]
*536 um_ow[236]
*537 um_ow[237]
*538 um_ow[238]
*539 um_ow[239]
*540 um_ow[23]
*541 um_ow[240]
*542 um_ow[241]
*543 um_ow[242]
*544 um_ow[243]
*545 um_ow[244]
*546 um_ow[245]
*547 um_ow[246]
*548 um_ow[247]
*549 um_ow[248]
*550 um_ow[249]
*551 um_ow[24]
*552 um_ow[250]
*553 um_ow[251]
*554 um_ow[252]
*555 um_ow[253]
*556 um_ow[254]
*557 um_ow[255]
*558 um_ow[256]
*559 um_ow[257]
*560 um_ow[258]
*561 um_ow[259]
*562 um_ow[25]
*563 um_ow[260]
*564 um_ow[261]
*565 um_ow[262]
*566 um_ow[263]
*567 um_ow[264]
*568 um_ow[265]
*569 um_ow[266]
*570 um_ow[267]
*571 um_ow[268]
*572 um_ow[269]
*573 um_ow[26]
*574 um_ow[270]
*575 um_ow[271]
*576 um_ow[272]
*577 um_ow[273]
*578 um_ow[274]
*579 um_ow[275]
*580 um_ow[276]
*581 um_ow[277]
*582 um_ow[278]
*583 um_ow[279]
*584 um_ow[27]
*585 um_ow[280]
*586 um_ow[281]
*587 um_ow[282]
*588 um_ow[283]
*589 um_ow[284]
*590 um_ow[285]
*591 um_ow[286]
*592 um_ow[287]
*593 um_ow[288]
*594 um_ow[289]
*595 um_ow[28]
*596 um_ow[290]
*597 um_ow[291]
*598 um_ow[292]
*599 um_ow[293]
*600 um_ow[294]
*601 um_ow[295]
*602 um_ow[296]
*603 um_ow[297]
*604 um_ow[298]
*605 um_ow[299]
*606 um_ow[29]
*607 um_ow[2]
*608 um_ow[300]
*609 um_ow[301]
*610 um_ow[302]
*611 um_ow[303]
*612 um_ow[304]
*613 um_ow[305]
*614 um_ow[306]
*615 um_ow[307]
*616 um_ow[308]
*617 um_ow[309]
*618 um_ow[30]
*619 um_ow[310]
*620 um_ow[311]
*621 um_ow[312]
*622 um_ow[313]
*623 um_ow[314]
*624 um_ow[315]
*625 um_ow[316]
*626 um_ow[317]
*627 um_ow[318]
*628 um_ow[319]
*629 um_ow[31]
*630 um_ow[320]
*631 um_ow[321]
*632 um_ow[322]
*633 um_ow[323]
*634 um_ow[324]
*635 um_ow[325]
*636 um_ow[326]
*637 um_ow[327]
*638 um_ow[328]
*639 um_ow[329]
*640 um_ow[32]
*641 um_ow[330]
*642 um_ow[331]
*643 um_ow[332]
*644 um_ow[333]
*645 um_ow[334]
*646 um_ow[335]
*647 um_ow[336]
*648 um_ow[337]
*649 um_ow[338]
*650 um_ow[339]
*651 um_ow[33]
*652 um_ow[340]
*653 um_ow[341]
*654 um_ow[342]
*655 um_ow[343]
*656 um_ow[344]
*657 um_ow[345]
*658 um_ow[346]
*659 um_ow[347]
*660 um_ow[348]
*661 um_ow[349]
*662 um_ow[34]
*663 um_ow[350]
*664 um_ow[351]
*665 um_ow[352]
*666 um_ow[353]
*667 um_ow[354]
*668 um_ow[355]
*669 um_ow[356]
*670 um_ow[357]
*671 um_ow[358]
*672 um_ow[359]
*673 um_ow[35]
*674 um_ow[360]
*675 um_ow[361]
*676 um_ow[362]
*677 um_ow[363]
*678 um_ow[364]
*679 um_ow[365]
*680 um_ow[366]
*681 um_ow[367]
*682 um_ow[368]
*683 um_ow[369]
*684 um_ow[36]
*685 um_ow[370]
*686 um_ow[371]
*687 um_ow[372]
*688 um_ow[373]
*689 um_ow[374]
*690 um_ow[375]
*691 um_ow[376]
*692 um_ow[377]
*693 um_ow[378]
*694 um_ow[379]
*695 um_ow[37]
*696 um_ow[380]
*697 um_ow[381]
*698 um_ow[382]
*699 um_ow[383]
*700 um_ow[38]
*701 um_ow[39]
*702 um_ow[3]
*703 um_ow[40]
*704 um_ow[41]
*705 um_ow[42]
*706 um_ow[43]
*707 um_ow[44]
*708 um_ow[45]
*709 um_ow[46]
*710 um_ow[47]
*711 um_ow[48]
*712 um_ow[49]
*713 um_ow[4]
*714 um_ow[50]
*715 um_ow[51]
*716 um_ow[52]
*717 um_ow[53]
*718 um_ow[54]
*719 um_ow[55]
*720 um_ow[56]
*721 um_ow[57]
*722 um_ow[58]
*723 um_ow[59]
*724 um_ow[5]
*725 um_ow[60]
*726 um_ow[61]
*727 um_ow[62]
*728 um_ow[63]
*729 um_ow[64]
*730 um_ow[65]
*731 um_ow[66]
*732 um_ow[67]
*733 um_ow[68]
*734 um_ow[69]
*735 um_ow[6]
*736 um_ow[70]
*737 um_ow[71]
*738 um_ow[72]
*739 um_ow[73]
*740 um_ow[74]
*741 um_ow[75]
*742 um_ow[76]
*743 um_ow[77]
*744 um_ow[78]
*745 um_ow[79]
*746 um_ow[7]
*747 um_ow[80]
*748 um_ow[81]
*749 um_ow[82]
*750 um_ow[83]
*751 um_ow[84]
*752 um_ow[85]
*753 um_ow[86]
*754 um_ow[87]
*755 um_ow[88]
*756 um_ow[89]
*757 um_ow[8]
*758 um_ow[90]
*759 um_ow[91]
*760 um_ow[92]
*761 um_ow[93]
*762 um_ow[94]
*763 um_ow[95]
*764 um_ow[96]
*765 um_ow[97]
*766 um_ow[98]
*767 um_ow[99]
*768 um_ow[9]
*771 _000_
*772 _001_
*773 _002_
*774 _003_
*775 _004_
*776 _005_
*777 _006_
*778 _007_
*779 _008_
*780 _009_
*781 _010_
*782 _011_
*783 _012_
*784 _013_
*785 _014_
*786 _015_
*787 _016_
*788 _017_
*789 _018_
*790 _019_
*791 _020_
*792 _021_
*793 _022_
*794 _023_
*795 _024_
*796 _025_
*797 _026_
*798 _027_
*799 _028_
*800 _029_
*801 _030_
*802 _031_
*803 col\[0\]\.genblk1\.mux4_I\[0\]\.x
*804 col\[0\]\.genblk1\.mux4_I\[10\]\.x
*805 col\[0\]\.genblk1\.mux4_I\[11\]\.x
*806 col\[0\]\.genblk1\.mux4_I\[12\]\.x
*807 col\[0\]\.genblk1\.mux4_I\[13\]\.x
*808 col\[0\]\.genblk1\.mux4_I\[14\]\.x
*809 col\[0\]\.genblk1\.mux4_I\[15\]\.x
*810 col\[0\]\.genblk1\.mux4_I\[16\]\.x
*811 col\[0\]\.genblk1\.mux4_I\[17\]\.x
*812 col\[0\]\.genblk1\.mux4_I\[18\]\.x
*813 col\[0\]\.genblk1\.mux4_I\[19\]\.x
*814 col\[0\]\.genblk1\.mux4_I\[1\]\.x
*815 col\[0\]\.genblk1\.mux4_I\[20\]\.x
*816 col\[0\]\.genblk1\.mux4_I\[21\]\.x
*817 col\[0\]\.genblk1\.mux4_I\[22\]\.x
*818 col\[0\]\.genblk1\.mux4_I\[23\]\.x
*819 col\[0\]\.genblk1\.mux4_I\[2\]\.x
*820 col\[0\]\.genblk1\.mux4_I\[3\]\.x
*821 col\[0\]\.genblk1\.mux4_I\[4\]\.x
*822 col\[0\]\.genblk1\.mux4_I\[5\]\.x
*823 col\[0\]\.genblk1\.mux4_I\[6\]\.x
*824 col\[0\]\.genblk1\.mux4_I\[7\]\.x
*825 col\[0\]\.genblk1\.mux4_I\[8\]\.x
*826 col\[0\]\.genblk1\.mux4_I\[9\]\.x
*827 col\[0\]\.genblk1\.tbuf_row_ena_I\.t
*828 col\[0\]\.genblk1\.tbuf_row_ena_I\.tx
*829 col\[0\]\.genblk1\.tbuf_spine_ow_I\[0\]\.z
*830 col\[0\]\.genblk1\.tbuf_spine_ow_I\[10\]\.z
*831 col\[0\]\.genblk1\.tbuf_spine_ow_I\[11\]\.z
*832 col\[0\]\.genblk1\.tbuf_spine_ow_I\[12\]\.z
*833 col\[0\]\.genblk1\.tbuf_spine_ow_I\[13\]\.z
*834 col\[0\]\.genblk1\.tbuf_spine_ow_I\[14\]\.z
*835 col\[0\]\.genblk1\.tbuf_spine_ow_I\[15\]\.z
*836 col\[0\]\.genblk1\.tbuf_spine_ow_I\[16\]\.z
*837 col\[0\]\.genblk1\.tbuf_spine_ow_I\[17\]\.z
*838 col\[0\]\.genblk1\.tbuf_spine_ow_I\[18\]\.z
*839 col\[0\]\.genblk1\.tbuf_spine_ow_I\[19\]\.z
*840 col\[0\]\.genblk1\.tbuf_spine_ow_I\[1\]\.z
*841 col\[0\]\.genblk1\.tbuf_spine_ow_I\[20\]\.z
*842 col\[0\]\.genblk1\.tbuf_spine_ow_I\[21\]\.z
*843 col\[0\]\.genblk1\.tbuf_spine_ow_I\[22\]\.z
*844 col\[0\]\.genblk1\.tbuf_spine_ow_I\[23\]\.z
*845 col\[0\]\.genblk1\.tbuf_spine_ow_I\[2\]\.z
*846 col\[0\]\.genblk1\.tbuf_spine_ow_I\[3\]\.z
*847 col\[0\]\.genblk1\.tbuf_spine_ow_I\[4\]\.z
*848 col\[0\]\.genblk1\.tbuf_spine_ow_I\[5\]\.z
*849 col\[0\]\.genblk1\.tbuf_spine_ow_I\[6\]\.z
*850 col\[0\]\.genblk1\.tbuf_spine_ow_I\[7\]\.z
*851 col\[0\]\.genblk1\.tbuf_spine_ow_I\[8\]\.z
*852 col\[0\]\.genblk1\.tbuf_spine_ow_I\[9\]\.z
*853 col\[0\]\.zbuf_bot_ena_I\.e
*854 col\[0\]\.zbuf_bot_ena_I\.z
*855 col\[0\]\.zbuf_bot_iw_I\[0\]\.a
*856 col\[0\]\.zbuf_bot_iw_I\[0\]\.z
*857 col\[0\]\.zbuf_bot_iw_I\[10\]\.a
*858 col\[0\]\.zbuf_bot_iw_I\[10\]\.z
*859 col\[0\]\.zbuf_bot_iw_I\[11\]\.a
*860 col\[0\]\.zbuf_bot_iw_I\[11\]\.z
*861 col\[0\]\.zbuf_bot_iw_I\[12\]\.a
*862 col\[0\]\.zbuf_bot_iw_I\[12\]\.z
*863 col\[0\]\.zbuf_bot_iw_I\[13\]\.a
*864 col\[0\]\.zbuf_bot_iw_I\[13\]\.z
*865 col\[0\]\.zbuf_bot_iw_I\[14\]\.a
*866 col\[0\]\.zbuf_bot_iw_I\[14\]\.z
*867 col\[0\]\.zbuf_bot_iw_I\[15\]\.a
*868 col\[0\]\.zbuf_bot_iw_I\[15\]\.z
*869 col\[0\]\.zbuf_bot_iw_I\[16\]\.a
*870 col\[0\]\.zbuf_bot_iw_I\[16\]\.z
*871 col\[0\]\.zbuf_bot_iw_I\[17\]\.a
*872 col\[0\]\.zbuf_bot_iw_I\[17\]\.z
*873 col\[0\]\.zbuf_bot_iw_I\[1\]\.a
*874 col\[0\]\.zbuf_bot_iw_I\[1\]\.z
*875 col\[0\]\.zbuf_bot_iw_I\[2\]\.a
*876 col\[0\]\.zbuf_bot_iw_I\[2\]\.z
*877 col\[0\]\.zbuf_bot_iw_I\[3\]\.a
*878 col\[0\]\.zbuf_bot_iw_I\[3\]\.z
*879 col\[0\]\.zbuf_bot_iw_I\[4\]\.a
*880 col\[0\]\.zbuf_bot_iw_I\[4\]\.z
*881 col\[0\]\.zbuf_bot_iw_I\[5\]\.a
*882 col\[0\]\.zbuf_bot_iw_I\[5\]\.z
*883 col\[0\]\.zbuf_bot_iw_I\[6\]\.a
*884 col\[0\]\.zbuf_bot_iw_I\[6\]\.z
*885 col\[0\]\.zbuf_bot_iw_I\[7\]\.a
*886 col\[0\]\.zbuf_bot_iw_I\[7\]\.z
*887 col\[0\]\.zbuf_bot_iw_I\[8\]\.a
*888 col\[0\]\.zbuf_bot_iw_I\[8\]\.z
*889 col\[0\]\.zbuf_bot_iw_I\[9\]\.a
*890 col\[0\]\.zbuf_bot_iw_I\[9\]\.z
*891 col\[0\]\.zbuf_top_ena_I\.e
*892 col\[0\]\.zbuf_top_ena_I\.z
*893 col\[0\]\.zbuf_top_iw_I\[0\]\.z
*894 col\[0\]\.zbuf_top_iw_I\[10\]\.z
*895 col\[0\]\.zbuf_top_iw_I\[11\]\.z
*896 col\[0\]\.zbuf_top_iw_I\[12\]\.z
*897 col\[0\]\.zbuf_top_iw_I\[13\]\.z
*898 col\[0\]\.zbuf_top_iw_I\[14\]\.z
*899 col\[0\]\.zbuf_top_iw_I\[15\]\.z
*900 col\[0\]\.zbuf_top_iw_I\[16\]\.z
*901 col\[0\]\.zbuf_top_iw_I\[17\]\.z
*902 col\[0\]\.zbuf_top_iw_I\[1\]\.z
*903 col\[0\]\.zbuf_top_iw_I\[2\]\.z
*904 col\[0\]\.zbuf_top_iw_I\[3\]\.z
*905 col\[0\]\.zbuf_top_iw_I\[4\]\.z
*906 col\[0\]\.zbuf_top_iw_I\[5\]\.z
*907 col\[0\]\.zbuf_top_iw_I\[6\]\.z
*908 col\[0\]\.zbuf_top_iw_I\[7\]\.z
*909 col\[0\]\.zbuf_top_iw_I\[8\]\.z
*910 col\[0\]\.zbuf_top_iw_I\[9\]\.z
*911 col\[1\]\.zbuf_bot_ena_I\.e
*912 col\[1\]\.zbuf_bot_ena_I\.z
*913 col\[1\]\.zbuf_bot_iw_I\[0\]\.z
*914 col\[1\]\.zbuf_bot_iw_I\[10\]\.z
*915 col\[1\]\.zbuf_bot_iw_I\[11\]\.z
*916 col\[1\]\.zbuf_bot_iw_I\[12\]\.z
*917 col\[1\]\.zbuf_bot_iw_I\[13\]\.z
*918 col\[1\]\.zbuf_bot_iw_I\[14\]\.z
*919 col\[1\]\.zbuf_bot_iw_I\[15\]\.z
*920 col\[1\]\.zbuf_bot_iw_I\[16\]\.z
*921 col\[1\]\.zbuf_bot_iw_I\[17\]\.z
*922 col\[1\]\.zbuf_bot_iw_I\[1\]\.z
*923 col\[1\]\.zbuf_bot_iw_I\[2\]\.z
*924 col\[1\]\.zbuf_bot_iw_I\[3\]\.z
*925 col\[1\]\.zbuf_bot_iw_I\[4\]\.z
*926 col\[1\]\.zbuf_bot_iw_I\[5\]\.z
*927 col\[1\]\.zbuf_bot_iw_I\[6\]\.z
*928 col\[1\]\.zbuf_bot_iw_I\[7\]\.z
*929 col\[1\]\.zbuf_bot_iw_I\[8\]\.z
*930 col\[1\]\.zbuf_bot_iw_I\[9\]\.z
*931 col\[1\]\.zbuf_top_ena_I\.e
*932 col\[1\]\.zbuf_top_ena_I\.z
*933 col\[1\]\.zbuf_top_iw_I\[0\]\.z
*934 col\[1\]\.zbuf_top_iw_I\[10\]\.z
*935 col\[1\]\.zbuf_top_iw_I\[11\]\.z
*936 col\[1\]\.zbuf_top_iw_I\[12\]\.z
*937 col\[1\]\.zbuf_top_iw_I\[13\]\.z
*938 col\[1\]\.zbuf_top_iw_I\[14\]\.z
*939 col\[1\]\.zbuf_top_iw_I\[15\]\.z
*940 col\[1\]\.zbuf_top_iw_I\[16\]\.z
*941 col\[1\]\.zbuf_top_iw_I\[17\]\.z
*942 col\[1\]\.zbuf_top_iw_I\[1\]\.z
*943 col\[1\]\.zbuf_top_iw_I\[2\]\.z
*944 col\[1\]\.zbuf_top_iw_I\[3\]\.z
*945 col\[1\]\.zbuf_top_iw_I\[4\]\.z
*946 col\[1\]\.zbuf_top_iw_I\[5\]\.z
*947 col\[1\]\.zbuf_top_iw_I\[6\]\.z
*948 col\[1\]\.zbuf_top_iw_I\[7\]\.z
*949 col\[1\]\.zbuf_top_iw_I\[8\]\.z
*950 col\[1\]\.zbuf_top_iw_I\[9\]\.z
*951 col\[2\]\.genblk1\.mux4_I\[0\]\.x
*952 col\[2\]\.genblk1\.mux4_I\[10\]\.x
*953 col\[2\]\.genblk1\.mux4_I\[11\]\.x
*954 col\[2\]\.genblk1\.mux4_I\[12\]\.x
*955 col\[2\]\.genblk1\.mux4_I\[13\]\.x
*956 col\[2\]\.genblk1\.mux4_I\[14\]\.x
*957 col\[2\]\.genblk1\.mux4_I\[15\]\.x
*958 col\[2\]\.genblk1\.mux4_I\[16\]\.x
*959 col\[2\]\.genblk1\.mux4_I\[17\]\.x
*960 col\[2\]\.genblk1\.mux4_I\[18\]\.x
*961 col\[2\]\.genblk1\.mux4_I\[19\]\.x
*962 col\[2\]\.genblk1\.mux4_I\[1\]\.x
*963 col\[2\]\.genblk1\.mux4_I\[20\]\.x
*964 col\[2\]\.genblk1\.mux4_I\[21\]\.x
*965 col\[2\]\.genblk1\.mux4_I\[22\]\.x
*966 col\[2\]\.genblk1\.mux4_I\[23\]\.x
*967 col\[2\]\.genblk1\.mux4_I\[2\]\.x
*968 col\[2\]\.genblk1\.mux4_I\[3\]\.x
*969 col\[2\]\.genblk1\.mux4_I\[4\]\.x
*970 col\[2\]\.genblk1\.mux4_I\[5\]\.x
*971 col\[2\]\.genblk1\.mux4_I\[6\]\.x
*972 col\[2\]\.genblk1\.mux4_I\[7\]\.x
*973 col\[2\]\.genblk1\.mux4_I\[8\]\.x
*974 col\[2\]\.genblk1\.mux4_I\[9\]\.x
*975 col\[2\]\.genblk1\.tbuf_row_ena_I\.t
*976 col\[2\]\.genblk1\.tbuf_row_ena_I\.tx
*977 col\[2\]\.zbuf_bot_ena_I\.e
*978 col\[2\]\.zbuf_bot_ena_I\.z
*979 col\[2\]\.zbuf_bot_iw_I\[0\]\.z
*980 col\[2\]\.zbuf_bot_iw_I\[10\]\.z
*981 col\[2\]\.zbuf_bot_iw_I\[11\]\.z
*982 col\[2\]\.zbuf_bot_iw_I\[12\]\.z
*983 col\[2\]\.zbuf_bot_iw_I\[13\]\.z
*984 col\[2\]\.zbuf_bot_iw_I\[14\]\.z
*985 col\[2\]\.zbuf_bot_iw_I\[15\]\.z
*986 col\[2\]\.zbuf_bot_iw_I\[16\]\.z
*987 col\[2\]\.zbuf_bot_iw_I\[17\]\.z
*988 col\[2\]\.zbuf_bot_iw_I\[1\]\.z
*989 col\[2\]\.zbuf_bot_iw_I\[2\]\.z
*990 col\[2\]\.zbuf_bot_iw_I\[3\]\.z
*991 col\[2\]\.zbuf_bot_iw_I\[4\]\.z
*992 col\[2\]\.zbuf_bot_iw_I\[5\]\.z
*993 col\[2\]\.zbuf_bot_iw_I\[6\]\.z
*994 col\[2\]\.zbuf_bot_iw_I\[7\]\.z
*995 col\[2\]\.zbuf_bot_iw_I\[8\]\.z
*996 col\[2\]\.zbuf_bot_iw_I\[9\]\.z
*997 col\[2\]\.zbuf_top_ena_I\.e
*998 col\[2\]\.zbuf_top_ena_I\.z
*999 col\[2\]\.zbuf_top_iw_I\[0\]\.z
*1000 col\[2\]\.zbuf_top_iw_I\[10\]\.z
*1001 col\[2\]\.zbuf_top_iw_I\[11\]\.z
*1002 col\[2\]\.zbuf_top_iw_I\[12\]\.z
*1003 col\[2\]\.zbuf_top_iw_I\[13\]\.z
*1004 col\[2\]\.zbuf_top_iw_I\[14\]\.z
*1005 col\[2\]\.zbuf_top_iw_I\[15\]\.z
*1006 col\[2\]\.zbuf_top_iw_I\[16\]\.z
*1007 col\[2\]\.zbuf_top_iw_I\[17\]\.z
*1008 col\[2\]\.zbuf_top_iw_I\[1\]\.z
*1009 col\[2\]\.zbuf_top_iw_I\[2\]\.z
*1010 col\[2\]\.zbuf_top_iw_I\[3\]\.z
*1011 col\[2\]\.zbuf_top_iw_I\[4\]\.z
*1012 col\[2\]\.zbuf_top_iw_I\[5\]\.z
*1013 col\[2\]\.zbuf_top_iw_I\[6\]\.z
*1014 col\[2\]\.zbuf_top_iw_I\[7\]\.z
*1015 col\[2\]\.zbuf_top_iw_I\[8\]\.z
*1016 col\[2\]\.zbuf_top_iw_I\[9\]\.z
*1017 col\[3\]\.zbuf_bot_ena_I\.e
*1018 col\[3\]\.zbuf_bot_ena_I\.z
*1019 col\[3\]\.zbuf_bot_iw_I\[0\]\.z
*1020 col\[3\]\.zbuf_bot_iw_I\[10\]\.z
*1021 col\[3\]\.zbuf_bot_iw_I\[11\]\.z
*1022 col\[3\]\.zbuf_bot_iw_I\[12\]\.z
*1023 col\[3\]\.zbuf_bot_iw_I\[13\]\.z
*1024 col\[3\]\.zbuf_bot_iw_I\[14\]\.z
*1025 col\[3\]\.zbuf_bot_iw_I\[15\]\.z
*1026 col\[3\]\.zbuf_bot_iw_I\[16\]\.z
*1027 col\[3\]\.zbuf_bot_iw_I\[17\]\.z
*1028 col\[3\]\.zbuf_bot_iw_I\[1\]\.z
*1029 col\[3\]\.zbuf_bot_iw_I\[2\]\.z
*1030 col\[3\]\.zbuf_bot_iw_I\[3\]\.z
*1031 col\[3\]\.zbuf_bot_iw_I\[4\]\.z
*1032 col\[3\]\.zbuf_bot_iw_I\[5\]\.z
*1033 col\[3\]\.zbuf_bot_iw_I\[6\]\.z
*1034 col\[3\]\.zbuf_bot_iw_I\[7\]\.z
*1035 col\[3\]\.zbuf_bot_iw_I\[8\]\.z
*1036 col\[3\]\.zbuf_bot_iw_I\[9\]\.z
*1037 col\[3\]\.zbuf_top_ena_I\.e
*1038 col\[3\]\.zbuf_top_ena_I\.z
*1039 col\[3\]\.zbuf_top_iw_I\[0\]\.z
*1040 col\[3\]\.zbuf_top_iw_I\[10\]\.z
*1041 col\[3\]\.zbuf_top_iw_I\[11\]\.z
*1042 col\[3\]\.zbuf_top_iw_I\[12\]\.z
*1043 col\[3\]\.zbuf_top_iw_I\[13\]\.z
*1044 col\[3\]\.zbuf_top_iw_I\[14\]\.z
*1045 col\[3\]\.zbuf_top_iw_I\[15\]\.z
*1046 col\[3\]\.zbuf_top_iw_I\[16\]\.z
*1047 col\[3\]\.zbuf_top_iw_I\[17\]\.z
*1048 col\[3\]\.zbuf_top_iw_I\[1\]\.z
*1049 col\[3\]\.zbuf_top_iw_I\[2\]\.z
*1050 col\[3\]\.zbuf_top_iw_I\[3\]\.z
*1051 col\[3\]\.zbuf_top_iw_I\[4\]\.z
*1052 col\[3\]\.zbuf_top_iw_I\[5\]\.z
*1053 col\[3\]\.zbuf_top_iw_I\[6\]\.z
*1054 col\[3\]\.zbuf_top_iw_I\[7\]\.z
*1055 col\[3\]\.zbuf_top_iw_I\[8\]\.z
*1056 col\[3\]\.zbuf_top_iw_I\[9\]\.z
*1057 col\[4\]\.genblk1\.mux4_I\[0\]\.x
*1058 col\[4\]\.genblk1\.mux4_I\[10\]\.x
*1059 col\[4\]\.genblk1\.mux4_I\[11\]\.x
*1060 col\[4\]\.genblk1\.mux4_I\[12\]\.x
*1061 col\[4\]\.genblk1\.mux4_I\[13\]\.x
*1062 col\[4\]\.genblk1\.mux4_I\[14\]\.x
*1063 col\[4\]\.genblk1\.mux4_I\[15\]\.x
*1064 col\[4\]\.genblk1\.mux4_I\[16\]\.x
*1065 col\[4\]\.genblk1\.mux4_I\[17\]\.x
*1066 col\[4\]\.genblk1\.mux4_I\[18\]\.x
*1067 col\[4\]\.genblk1\.mux4_I\[19\]\.x
*1068 col\[4\]\.genblk1\.mux4_I\[1\]\.x
*1069 col\[4\]\.genblk1\.mux4_I\[20\]\.x
*1070 col\[4\]\.genblk1\.mux4_I\[21\]\.x
*1071 col\[4\]\.genblk1\.mux4_I\[22\]\.x
*1072 col\[4\]\.genblk1\.mux4_I\[23\]\.x
*1073 col\[4\]\.genblk1\.mux4_I\[2\]\.x
*1074 col\[4\]\.genblk1\.mux4_I\[3\]\.x
*1075 col\[4\]\.genblk1\.mux4_I\[4\]\.x
*1076 col\[4\]\.genblk1\.mux4_I\[5\]\.x
*1077 col\[4\]\.genblk1\.mux4_I\[6\]\.x
*1078 col\[4\]\.genblk1\.mux4_I\[7\]\.x
*1079 col\[4\]\.genblk1\.mux4_I\[8\]\.x
*1080 col\[4\]\.genblk1\.mux4_I\[9\]\.x
*1081 col\[4\]\.genblk1\.tbuf_row_ena_I\.t
*1082 col\[4\]\.genblk1\.tbuf_row_ena_I\.tx
*1083 col\[4\]\.zbuf_bot_ena_I\.e
*1084 col\[4\]\.zbuf_bot_ena_I\.z
*1085 col\[4\]\.zbuf_bot_iw_I\[0\]\.z
*1086 col\[4\]\.zbuf_bot_iw_I\[10\]\.z
*1087 col\[4\]\.zbuf_bot_iw_I\[11\]\.z
*1088 col\[4\]\.zbuf_bot_iw_I\[12\]\.z
*1089 col\[4\]\.zbuf_bot_iw_I\[13\]\.z
*1090 col\[4\]\.zbuf_bot_iw_I\[14\]\.z
*1091 col\[4\]\.zbuf_bot_iw_I\[15\]\.z
*1092 col\[4\]\.zbuf_bot_iw_I\[16\]\.z
*1093 col\[4\]\.zbuf_bot_iw_I\[17\]\.z
*1094 col\[4\]\.zbuf_bot_iw_I\[1\]\.z
*1095 col\[4\]\.zbuf_bot_iw_I\[2\]\.z
*1096 col\[4\]\.zbuf_bot_iw_I\[3\]\.z
*1097 col\[4\]\.zbuf_bot_iw_I\[4\]\.z
*1098 col\[4\]\.zbuf_bot_iw_I\[5\]\.z
*1099 col\[4\]\.zbuf_bot_iw_I\[6\]\.z
*1100 col\[4\]\.zbuf_bot_iw_I\[7\]\.z
*1101 col\[4\]\.zbuf_bot_iw_I\[8\]\.z
*1102 col\[4\]\.zbuf_bot_iw_I\[9\]\.z
*1103 col\[4\]\.zbuf_top_ena_I\.e
*1104 col\[4\]\.zbuf_top_ena_I\.z
*1105 col\[4\]\.zbuf_top_iw_I\[0\]\.z
*1106 col\[4\]\.zbuf_top_iw_I\[10\]\.z
*1107 col\[4\]\.zbuf_top_iw_I\[11\]\.z
*1108 col\[4\]\.zbuf_top_iw_I\[12\]\.z
*1109 col\[4\]\.zbuf_top_iw_I\[13\]\.z
*1110 col\[4\]\.zbuf_top_iw_I\[14\]\.z
*1111 col\[4\]\.zbuf_top_iw_I\[15\]\.z
*1112 col\[4\]\.zbuf_top_iw_I\[16\]\.z
*1113 col\[4\]\.zbuf_top_iw_I\[17\]\.z
*1114 col\[4\]\.zbuf_top_iw_I\[1\]\.z
*1115 col\[4\]\.zbuf_top_iw_I\[2\]\.z
*1116 col\[4\]\.zbuf_top_iw_I\[3\]\.z
*1117 col\[4\]\.zbuf_top_iw_I\[4\]\.z
*1118 col\[4\]\.zbuf_top_iw_I\[5\]\.z
*1119 col\[4\]\.zbuf_top_iw_I\[6\]\.z
*1120 col\[4\]\.zbuf_top_iw_I\[7\]\.z
*1121 col\[4\]\.zbuf_top_iw_I\[8\]\.z
*1122 col\[4\]\.zbuf_top_iw_I\[9\]\.z
*1123 col\[5\]\.zbuf_bot_ena_I\.e
*1124 col\[5\]\.zbuf_bot_ena_I\.z
*1125 col\[5\]\.zbuf_bot_iw_I\[0\]\.z
*1126 col\[5\]\.zbuf_bot_iw_I\[10\]\.z
*1127 col\[5\]\.zbuf_bot_iw_I\[11\]\.z
*1128 col\[5\]\.zbuf_bot_iw_I\[12\]\.z
*1129 col\[5\]\.zbuf_bot_iw_I\[13\]\.z
*1130 col\[5\]\.zbuf_bot_iw_I\[14\]\.z
*1131 col\[5\]\.zbuf_bot_iw_I\[15\]\.z
*1132 col\[5\]\.zbuf_bot_iw_I\[16\]\.z
*1133 col\[5\]\.zbuf_bot_iw_I\[17\]\.z
*1134 col\[5\]\.zbuf_bot_iw_I\[1\]\.z
*1135 col\[5\]\.zbuf_bot_iw_I\[2\]\.z
*1136 col\[5\]\.zbuf_bot_iw_I\[3\]\.z
*1137 col\[5\]\.zbuf_bot_iw_I\[4\]\.z
*1138 col\[5\]\.zbuf_bot_iw_I\[5\]\.z
*1139 col\[5\]\.zbuf_bot_iw_I\[6\]\.z
*1140 col\[5\]\.zbuf_bot_iw_I\[7\]\.z
*1141 col\[5\]\.zbuf_bot_iw_I\[8\]\.z
*1142 col\[5\]\.zbuf_bot_iw_I\[9\]\.z
*1143 col\[5\]\.zbuf_top_ena_I\.e
*1144 col\[5\]\.zbuf_top_ena_I\.z
*1145 col\[5\]\.zbuf_top_iw_I\[0\]\.z
*1146 col\[5\]\.zbuf_top_iw_I\[10\]\.z
*1147 col\[5\]\.zbuf_top_iw_I\[11\]\.z
*1148 col\[5\]\.zbuf_top_iw_I\[12\]\.z
*1149 col\[5\]\.zbuf_top_iw_I\[13\]\.z
*1150 col\[5\]\.zbuf_top_iw_I\[14\]\.z
*1151 col\[5\]\.zbuf_top_iw_I\[15\]\.z
*1152 col\[5\]\.zbuf_top_iw_I\[16\]\.z
*1153 col\[5\]\.zbuf_top_iw_I\[17\]\.z
*1154 col\[5\]\.zbuf_top_iw_I\[1\]\.z
*1155 col\[5\]\.zbuf_top_iw_I\[2\]\.z
*1156 col\[5\]\.zbuf_top_iw_I\[3\]\.z
*1157 col\[5\]\.zbuf_top_iw_I\[4\]\.z
*1158 col\[5\]\.zbuf_top_iw_I\[5\]\.z
*1159 col\[5\]\.zbuf_top_iw_I\[6\]\.z
*1160 col\[5\]\.zbuf_top_iw_I\[7\]\.z
*1161 col\[5\]\.zbuf_top_iw_I\[8\]\.z
*1162 col\[5\]\.zbuf_top_iw_I\[9\]\.z
*1163 col\[6\]\.genblk1\.mux4_I\[0\]\.x
*1164 col\[6\]\.genblk1\.mux4_I\[10\]\.x
*1165 col\[6\]\.genblk1\.mux4_I\[11\]\.x
*1166 col\[6\]\.genblk1\.mux4_I\[12\]\.x
*1167 col\[6\]\.genblk1\.mux4_I\[13\]\.x
*1168 col\[6\]\.genblk1\.mux4_I\[14\]\.x
*1169 col\[6\]\.genblk1\.mux4_I\[15\]\.x
*1170 col\[6\]\.genblk1\.mux4_I\[16\]\.x
*1171 col\[6\]\.genblk1\.mux4_I\[17\]\.x
*1172 col\[6\]\.genblk1\.mux4_I\[18\]\.x
*1173 col\[6\]\.genblk1\.mux4_I\[19\]\.x
*1174 col\[6\]\.genblk1\.mux4_I\[1\]\.x
*1175 col\[6\]\.genblk1\.mux4_I\[20\]\.x
*1176 col\[6\]\.genblk1\.mux4_I\[21\]\.x
*1177 col\[6\]\.genblk1\.mux4_I\[22\]\.x
*1178 col\[6\]\.genblk1\.mux4_I\[23\]\.x
*1179 col\[6\]\.genblk1\.mux4_I\[2\]\.x
*1180 col\[6\]\.genblk1\.mux4_I\[3\]\.x
*1181 col\[6\]\.genblk1\.mux4_I\[4\]\.x
*1182 col\[6\]\.genblk1\.mux4_I\[5\]\.x
*1183 col\[6\]\.genblk1\.mux4_I\[6\]\.x
*1184 col\[6\]\.genblk1\.mux4_I\[7\]\.x
*1185 col\[6\]\.genblk1\.mux4_I\[8\]\.x
*1186 col\[6\]\.genblk1\.mux4_I\[9\]\.x
*1187 col\[6\]\.genblk1\.tbuf_row_ena_I\.t
*1188 col\[6\]\.genblk1\.tbuf_row_ena_I\.tx
*1189 col\[6\]\.zbuf_bot_ena_I\.e
*1190 col\[6\]\.zbuf_bot_ena_I\.z
*1191 col\[6\]\.zbuf_bot_iw_I\[0\]\.z
*1192 col\[6\]\.zbuf_bot_iw_I\[10\]\.z
*1193 col\[6\]\.zbuf_bot_iw_I\[11\]\.z
*1194 col\[6\]\.zbuf_bot_iw_I\[12\]\.z
*1195 col\[6\]\.zbuf_bot_iw_I\[13\]\.z
*1196 col\[6\]\.zbuf_bot_iw_I\[14\]\.z
*1197 col\[6\]\.zbuf_bot_iw_I\[15\]\.z
*1198 col\[6\]\.zbuf_bot_iw_I\[16\]\.z
*1199 col\[6\]\.zbuf_bot_iw_I\[17\]\.z
*1200 col\[6\]\.zbuf_bot_iw_I\[1\]\.z
*1201 col\[6\]\.zbuf_bot_iw_I\[2\]\.z
*1202 col\[6\]\.zbuf_bot_iw_I\[3\]\.z
*1203 col\[6\]\.zbuf_bot_iw_I\[4\]\.z
*1204 col\[6\]\.zbuf_bot_iw_I\[5\]\.z
*1205 col\[6\]\.zbuf_bot_iw_I\[6\]\.z
*1206 col\[6\]\.zbuf_bot_iw_I\[7\]\.z
*1207 col\[6\]\.zbuf_bot_iw_I\[8\]\.z
*1208 col\[6\]\.zbuf_bot_iw_I\[9\]\.z
*1209 col\[6\]\.zbuf_top_ena_I\.e
*1210 col\[6\]\.zbuf_top_ena_I\.z
*1211 col\[6\]\.zbuf_top_iw_I\[0\]\.z
*1212 col\[6\]\.zbuf_top_iw_I\[10\]\.z
*1213 col\[6\]\.zbuf_top_iw_I\[11\]\.z
*1214 col\[6\]\.zbuf_top_iw_I\[12\]\.z
*1215 col\[6\]\.zbuf_top_iw_I\[13\]\.z
*1216 col\[6\]\.zbuf_top_iw_I\[14\]\.z
*1217 col\[6\]\.zbuf_top_iw_I\[15\]\.z
*1218 col\[6\]\.zbuf_top_iw_I\[16\]\.z
*1219 col\[6\]\.zbuf_top_iw_I\[17\]\.z
*1220 col\[6\]\.zbuf_top_iw_I\[1\]\.z
*1221 col\[6\]\.zbuf_top_iw_I\[2\]\.z
*1222 col\[6\]\.zbuf_top_iw_I\[3\]\.z
*1223 col\[6\]\.zbuf_top_iw_I\[4\]\.z
*1224 col\[6\]\.zbuf_top_iw_I\[5\]\.z
*1225 col\[6\]\.zbuf_top_iw_I\[6\]\.z
*1226 col\[6\]\.zbuf_top_iw_I\[7\]\.z
*1227 col\[6\]\.zbuf_top_iw_I\[8\]\.z
*1228 col\[6\]\.zbuf_top_iw_I\[9\]\.z
*1229 col\[7\]\.zbuf_bot_ena_I\.e
*1230 col\[7\]\.zbuf_bot_ena_I\.z
*1231 col\[7\]\.zbuf_bot_iw_I\[0\]\.z
*1232 col\[7\]\.zbuf_bot_iw_I\[10\]\.z
*1233 col\[7\]\.zbuf_bot_iw_I\[11\]\.z
*1234 col\[7\]\.zbuf_bot_iw_I\[12\]\.z
*1235 col\[7\]\.zbuf_bot_iw_I\[13\]\.z
*1236 col\[7\]\.zbuf_bot_iw_I\[14\]\.z
*1237 col\[7\]\.zbuf_bot_iw_I\[15\]\.z
*1238 col\[7\]\.zbuf_bot_iw_I\[16\]\.z
*1239 col\[7\]\.zbuf_bot_iw_I\[17\]\.z
*1240 col\[7\]\.zbuf_bot_iw_I\[1\]\.z
*1241 col\[7\]\.zbuf_bot_iw_I\[2\]\.z
*1242 col\[7\]\.zbuf_bot_iw_I\[3\]\.z
*1243 col\[7\]\.zbuf_bot_iw_I\[4\]\.z
*1244 col\[7\]\.zbuf_bot_iw_I\[5\]\.z
*1245 col\[7\]\.zbuf_bot_iw_I\[6\]\.z
*1246 col\[7\]\.zbuf_bot_iw_I\[7\]\.z
*1247 col\[7\]\.zbuf_bot_iw_I\[8\]\.z
*1248 col\[7\]\.zbuf_bot_iw_I\[9\]\.z
*1249 col\[7\]\.zbuf_top_ena_I\.e
*1250 col\[7\]\.zbuf_top_ena_I\.z