*SPEF "ieee 1481-1999"
*DESIGN "tt_um_urish_dffram"
*DATE "11:11:11 Fri 11 11, 1111"
*VENDOR "OpenRCX"
*PROGRAM "Parallel Extraction"
*VERSION "1.0"
*DESIGN_FLOW "NAME_SCOPE LOCAL" "PIN_CAP NONE"
*DIVIDER /
*DELIMITER :
*BUS_DELIMITER []
*T_UNIT 1 NS
*C_UNIT 1 PF
*R_UNIT 1 OHM
*L_UNIT 1 HENRY

*NAME_MAP
*1 clk
*2 ena
*3 rst_n
*4 ui_in[0]
*5 ui_in[1]
*6 ui_in[2]
*7 ui_in[3]
*8 ui_in[4]
*9 ui_in[5]
*10 ui_in[6]
*11 ui_in[7]
*12 uio_in[0]
*13 uio_in[1]
*14 uio_in[2]
*15 uio_in[3]
*16 uio_in[4]
*17 uio_in[5]
*18 uio_in[6]
*19 uio_in[7]
*20 net18
*21 net19
*22 net20
*23 net21
*24 net22
*25 net23
*26 net24
*27 net25
*28 net26
*29 net27
*30 net28
*31 net29
*32 net30
*33 net31
*34 net32
*35 net33
*36 uo_out[0]
*37 uo_out[1]
*38 uo_out[2]
*39 uo_out[3]
*40 uo_out[4]
*41 uo_out[5]
*42 uo_out[6]
*43 uo_out[7]
*46 Di0\[0\]
*47 Di0\[10\]
*48 Di0\[11\]
*49 Di0\[12\]
*50 Di0\[13\]
*51 Di0\[14\]
*52 Di0\[15\]
*53 Di0\[16\]
*54 Di0\[17\]
*55 Di0\[18\]
*56 Di0\[19\]
*57 Di0\[1\]
*58 Di0\[20\]
*59 Di0\[21\]
*60 Di0\[22\]
*61 Di0\[23\]
*62 Di0\[24\]
*63 Di0\[25\]
*64 Di0\[26\]
*65 Di0\[27\]
*66 Di0\[28\]
*67 Di0\[29\]
*68 Di0\[2\]
*69 Di0\[30\]
*70 Di0\[31\]
*71 Di0\[3\]
*72 Di0\[4\]
*73 Di0\[5\]
*74 Di0\[6\]
*75 Di0\[7\]
*76 Di0\[8\]
*77 Di0\[9\]
*78 Do0\[0\]
*79 Do0\[10\]
*80 Do0\[11\]
*81 Do0\[12\]
*82 Do0\[13\]
*83 Do0\[14\]
*84 Do0\[15\]
*85 Do0\[16\]
*86 Do0\[17\]
*87 Do0\[18\]
*88 Do0\[19\]
*89 Do0\[1\]
*90 Do0\[20\]
*91 Do0\[21\]
*92 Do0\[22\]
*93 Do0\[23\]
*94 Do0\[24\]
*95 Do0\[25\]
*96 Do0\[26\]
*97 Do0\[27\]
*98 Do0\[28\]
*99 Do0\[29\]
*100 Do0\[2\]
*101 Do0\[30\]
*102 Do0\[31\]
*103 Do0\[3\]
*104 Do0\[4\]
*105 Do0\[5\]
*106 Do0\[6\]
*107 Do0\[7\]
*108 Do0\[8\]
*109 Do0\[9\]
*110 WE0
*111 WE1
*112 WE2
*113 WE3
*114 _000_
*115 _001_
*116 _002_
*117 _003_
*118 _004_
*119 _005_
*120 _006_
*121 _007_
*122 _008_
*123 _009_
*124 _010_
*125 _011_
*126 _012_
*127 _013_
*128 _014_
*129 _015_
*130 _016_
*131 _017_
*132 _018_
*133 _019_
*134 _020_
*135 _021_
*136 _022_
*137 _023_
*138 _024_
*139 _025_
*140 _026_
*141 _027_
*142 _028_
*143 _029_
*144 _030_
*145 _031_
*146 _032_
*147 _033_
*148 _034_
*149 _035_
*150 _036_
*151 _037_
*152 _038_
*153 _039_
*154 _040_
*155 _041_
*156 _042_
*157 _043_
*158 _044_
*159 clknet_0_clk
*160 clknet_1_0__leaf_clk
*161 clknet_1_1__leaf_clk
*162 net1
*163 net10
*164 net11
*165 net12
*166 net13
*167 net14
*168 net15
*169 net16
*170 net17
*171 net2
*172 net3
*173 net4
*174 net5
*175 net6
*176 net7
*177 net8
*178 net9
*179 out_bit_index\[3\]
*180 out_bit_index\[4\]
*181 ANTENNA_1
*182 ANTENNA_10
*183 ANTENNA_11
*184 ANTENNA_12
*185 ANTENNA_13
*186 ANTENNA_14
*187 ANTENNA_15
*188 ANTENNA_16
*189 ANTENNA_17
*190 ANTENNA_18
*191 ANTENNA_19
*192 ANTENNA_2
*193 ANTENNA_20
*194 ANTENNA_21
*195 ANTENNA_22
*196 ANTENNA_23
*197 ANTENNA_24
*198 ANTENNA_25
*199 ANTENNA_26
*200 ANTENNA_27
*201 ANTENNA_28
*202 ANTENNA_29
*203 ANTENNA_3
*204 ANTENNA_30
*205 ANTENNA_31
*206 ANTENNA_32
*207 ANTENNA_33
*208 ANTENNA_34
*209 ANTENNA_35
*210 ANTENNA_36
*211 ANTENNA_37
*212 ANTENNA_38
*213 ANTENNA_39
*214 ANTENNA_4
*215 ANTENNA_40
*216 ANTENNA_5
*217 ANTENNA_6
*218 ANTENNA_7
*219 ANTENNA_8
*220 ANTENNA_9
*221 FILLER_0_1005
*222 FILLER_0_1009
*223 FILLER_0_1021
*224 FILLER_0_1033
*225 FILLER_0_1037
*226 FILLER_0_1049
*227 FILLER_0_1061
*228 FILLER_0_1065
*229 FILLER_0_1077
*230 FILLER_0_1089
*231 FILLER_0_109
*232 FILLER_0_1093
*233 FILLER_0_1105
*234 FILLER_0_1117
*235 FILLER_0_1121
*236 FILLER_0_113
*237 FILLER_0_1133
*238 FILLER_0_1145
*239 FILLER_0_1149
*240 FILLER_0_1161
*241 FILLER_0_1173
*242 FILLER_0_1177
*243 FILLER_0_1189
*244 FILLER_0_1201
*245 FILLER_0_1205
*246 FILLER_0_1217
*247 FILLER_0_1229
*248 FILLER_0_1233
*249 FILLER_0_1245
*250 FILLER_0_125
*251 FILLER_0_1257
*252 FILLER_0_1261
*253 FILLER_0_1273
*254 FILLER_0_1285
*255 FILLER_0_1289
*256 FILLER_0_1301
*257 FILLER_0_1313
*258 FILLER_0_1317
*259 FILLER_0_1329
*260 FILLER_0_1341
*261 FILLER_0_1345
*262 FILLER_0_1357
*263 FILLER_0_1369
*264 FILLER_0_137
*265 FILLER_0_1373
*266 FILLER_0_1385
*267 FILLER_0_1397
*268 FILLER_0_1401
*269 FILLER_0_141
*270 FILLER_0_1413
*271 FILLER_0_1425
*272 FILLER_0_1429
*273 FILLER_0_1441
*274 FILLER_0_1449
*275 FILLER_0_15
*276 FILLER_0_153
*277 FILLER_0_165
*278 FILLER_0_169
*279 FILLER_0_181
*280 FILLER_0_193
*281 FILLER_0_197
*282 FILLER_0_209
*283 FILLER_0_221
*284 FILLER_0_225
*285 FILLER_0_237
*286 FILLER_0_249
*287 FILLER_0_253
*288 FILLER_0_265
*289 FILLER_0_27
*290 FILLER_0_277
*291 FILLER_0_281
*292 FILLER_0_29
*293 FILLER_0_293
*294 FILLER_0_3
*295 FILLER_0_305
*296 FILLER_0_309
*297 FILLER_0_321
*298 FILLER_0_333
*299 FILLER_0_337
*300 FILLER_0_349
*301 FILLER_0_361
*302 FILLER_0_365
*303 FILLER_0_377
*304 FILLER_0_389
*305 FILLER_0_393
*306 FILLER_0_405
*307 FILLER_0_41
*308 FILLER_0_417
*309 FILLER_0_421
*310 FILLER_0_433
*311 FILLER_0_445
*312 FILLER_0_449
*313 FILLER_0_461
*314 FILLER_0_473
*315 FILLER_0_477
*316 FILLER_0_489
*317 FILLER_0_501
*318 FILLER_0_505
*319 FILLER_0_517
*320 FILLER_0_529
*321 FILLER_0_53
*322 FILLER_0_533
*323 FILLER_0_545
*324 FILLER_0_557
*325 FILLER_0_561
*326 FILLER_0_57
*327 FILLER_0_573
*328 FILLER_0_585
*329 FILLER_0_589
*330 FILLER_0_601
*331 FILLER_0_613
*332 FILLER_0_617
*333 FILLER_0_629
*334 FILLER_0_641
*335 FILLER_0_645
*336 FILLER_0_657
*337 FILLER_0_669
*338 FILLER_0_673
*339 FILLER_0_685
*340 FILLER_0_69
*341 FILLER_0_697
*342 FILLER_0_701
*343 FILLER_0_713
*344 FILLER_0_725
*345 FILLER_0_729
*346 FILLER_0_741
*347 FILLER_0_753
*348 FILLER_0_757
*349 FILLER_0_769
*350 FILLER_0_781
*351 FILLER_0_785
*352 FILLER_0_793
*353 FILLER_0_805
*354 FILLER_0_81
*355 FILLER_0_811
*356 FILLER_0_813
*357 FILLER_0_825
*358 FILLER_0_837
*359 FILLER_0_841
*360 FILLER_0_85
*361 FILLER_0_853
*362 FILLER_0_865
*363 FILLER_0_869
*364 FILLER_0_881
*365 FILLER_0_893
*366 FILLER_0_897
*367 FILLER_0_909
*368 FILLER_0_921
*369 FILLER_0_925
*370 FILLER_0_937
*371 FILLER_0_949
*372 FILLER_0_953
*373 FILLER_0_965
*374 FILLER_0_97
*375 FILLER_0_977
*376 FILLER_0_981
*377 FILLER_0_993
*378 FILLER_10_109
*379 FILLER_10_121
*380 FILLER_10_133
*381 FILLER_10_139
*382 FILLER_10_1393
*383 FILLER_10_1405
*384 FILLER_10_141
*385 FILLER_10_1417
*386 FILLER_10_1419
*387 FILLER_10_1431
*388 FILLER_10_1443
*389 FILLER_10_15
*390 FILLER_10_153
*391 FILLER_10_165
*392 FILLER_10_177
*393 FILLER_10_189
*394 FILLER_10_195
*395 FILLER_10_197
*396 FILLER_10_209
*397 FILLER_10_221
*398 FILLER_10_233
*399 FILLER_10_245
*400 FILLER_10_251
*401 FILLER_10_253
*402 FILLER_10_265
*403 FILLER_10_27
*404 FILLER_10_277
*405 FILLER_10_289
*406 FILLER_10_29
*407 FILLER_10_3
*408 FILLER_10_301
*409 FILLER_10_307
*410 FILLER_10_309
*411 FILLER_10_321
*412 FILLER_10_333
*413 FILLER_10_345
*414 FILLER_10_357
*415 FILLER_10_363
*416 FILLER_10_365
*417 FILLER_10_377
*418 FILLER_10_389
*419 FILLER_10_401
*420 FILLER_10_41
*421 FILLER_10_413
*422 FILLER_10_419
*423 FILLER_10_421
*424 FILLER_10_433
*425 FILLER_10_445
*426 FILLER_10_457
*427 FILLER_10_469
*428 FILLER_10_53
*429 FILLER_10_65
*430 FILLER_10_77
*431 FILLER_10_83
*432 FILLER_10_85
*433 FILLER_10_97
*434 FILLER_11_105
*435 FILLER_11_111
*436 FILLER_11_113
*437 FILLER_11_125
*438 FILLER_11_137
*439 FILLER_11_1393
*440 FILLER_11_1405
*441 FILLER_11_1417
*442 FILLER_11_1429
*443 FILLER_11_1441
*444 FILLER_11_1445
*445 FILLER_11_1447
*446 FILLER_11_149
*447 FILLER_11_15
*448 FILLER_11_161
*449 FILLER_11_167
*450 FILLER_11_169
*451 FILLER_11_181
*452 FILLER_11_193
*453 FILLER_11_205
*454 FILLER_11_217
*455 FILLER_11_223
*456 FILLER_11_225
*457 FILLER_11_237
*458 FILLER_11_249
*459 FILLER_11_261
*460 FILLER_11_27
*461 FILLER_11_273
*462 FILLER_11_279
*463 FILLER_11_281
*464 FILLER_11_293
*465 FILLER_11_3
*466 FILLER_11_305
*467 FILLER_11_317
*468 FILLER_11_329
*469 FILLER_11_335
*470 FILLER_11_337
*471 FILLER_11_349
*472 FILLER_11_361
*473 FILLER_11_373
*474 FILLER_11_385
*475 FILLER_11_39
*476 FILLER_11_391
*477 FILLER_11_393
*478 FILLER_11_405
*479 FILLER_11_417
*480 FILLER_11_429
*481 FILLER_11_435
*482 FILLER_11_442
*483 FILLER_11_449
*484 FILLER_11_461
*485 FILLER_11_469
*486 FILLER_11_51
*487 FILLER_11_55
*488 FILLER_11_57
*489 FILLER_11_69
*490 FILLER_11_81
*491 FILLER_11_93
*492 FILLER_12_109
*493 FILLER_12_121
*494 FILLER_12_133
*495 FILLER_12_139
*496 FILLER_12_1393
*497 FILLER_12_1405
*498 FILLER_12_141
*499 FILLER_12_1417
*500 FILLER_12_1419
*501 FILLER_12_1431
*502 FILLER_12_1443
*503 FILLER_12_15
*504 FILLER_12_153
*505 FILLER_12_165
*506 FILLER_12_177
*507 FILLER_12_189
*508 FILLER_12_195
*509 FILLER_12_197
*510 FILLER_12_209
*511 FILLER_12_221
*512 FILLER_12_233
*513 FILLER_12_245
*514 FILLER_12_251
*515 FILLER_12_253
*516 FILLER_12_265
*517 FILLER_12_27
*518 FILLER_12_277
*519 FILLER_12_289
*520 FILLER_12_29
*521 FILLER_12_3
*522 FILLER_12_301
*523 FILLER_12_307
*524 FILLER_12_309
*525 FILLER_12_321
*526 FILLER_12_333
*527 FILLER_12_345
*528 FILLER_12_357
*529 FILLER_12_363
*530 FILLER_12_365
*531 FILLER_12_377
*532 FILLER_12_389
*533 FILLER_12_401
*534 FILLER_12_41
*535 FILLER_12_413
*536 FILLER_12_419
*537 FILLER_12_421
*538 FILLER_12_433
*539 FILLER_12_445
*540 FILLER_12_457
*541 FILLER_12_469
*542 FILLER_12_53
*543 FILLER_12_65
*544 FILLER_12_77
*545 FILLER_12_83
*546 FILLER_12_85
*547 FILLER_12_97
*548 FILLER_13_105
*549 FILLER_13_111
*550 FILLER_13_113
*551 FILLER_13_125
*552 FILLER_13_137
*553 FILLER_13_1393
*554 FILLER_13_1405
*555 FILLER_13_1417
*556 FILLER_13_1429
*557 FILLER_13_1441
*558 FILLER_13_1445
*559 FILLER_13_1447
*560 FILLER_13_149
*561 FILLER_13_15
*562 FILLER_13_161
*563 FILLER_13_167
*564 FILLER_13_169
*565 FILLER_13_181
*566 FILLER_13_193
*567 FILLER_13_205
*568 FILLER_13_217
*569 FILLER_13_223
*570 FILLER_13_225
*571 FILLER_13_237
*572 FILLER_13_249
*573 FILLER_13_261
*574 FILLER_13_27
*575 FILLER_13_273
*576 FILLER_13_279
*577 FILLER_13_281
*578 FILLER_13_293
*579 FILLER_13_3
*580 FILLER_13_305
*581 FILLER_13_317
*582 FILLER_13_329
*583 FILLER_13_335
*584 FILLER_13_337
*585 FILLER_13_349
*586 FILLER_13_361
*587 FILLER_13_373
*588 FILLER_13_385
*589 FILLER_13_39
*590 FILLER_13_391
*591 FILLER_13_393
*592 FILLER_13_405
*593 FILLER_13_417
*594 FILLER_13_429
*595 FILLER_13_441
*596 FILLER_13_447
*597 FILLER_13_449
*598 FILLER_13_461
*599 FILLER_13_467
*600 FILLER_13_51
*601 FILLER_13_55
*602 FILLER_13_57
*603 FILLER_13_69
*604 FILLER_13_81
*605 FILLER_13_93
*606 FILLER_14_109
*607 FILLER_14_121
*608 FILLER_14_133
*609 FILLER_14_139
*610 FILLER_14_1393
*611 FILLER_14_1405
*612 FILLER_14_141
*613 FILLER_14_1417
*614 FILLER_14_1419
*615 FILLER_14_1431
*616 FILLER_14_1443
*617 FILLER_14_15
*618 FILLER_14_153
*619 FILLER_14_165
*620 FILLER_14_177
*621 FILLER_14_189
*622 FILLER_14_195
*623 FILLER_14_197
*624 FILLER_14_209
*625 FILLER_14_221
*626 FILLER_14_233
*627 FILLER_14_245
*628 FILLER_14_251
*629 FILLER_14_253
*630 FILLER_14_265
*631 FILLER_14_27
*632 FILLER_14_277
*633 FILLER_14_289
*634 FILLER_14_29
*635 FILLER_14_3
*636 FILLER_14_301
*637 FILLER_14_307
*638 FILLER_14_309
*639 FILLER_14_321
*640 FILLER_14_333
*641 FILLER_14_345
*642 FILLER_14_357
*643 FILLER_14_363
*644 FILLER_14_365
*645 FILLER_14_377
*646 FILLER_14_389
*647 FILLER_14_401
*648 FILLER_14_41
*649 FILLER_14_413
*650 FILLER_14_419
*651 FILLER_14_421
*652 FILLER_14_433
*653 FILLER_14_445
*654 FILLER_14_457
*655 FILLER_14_468
*656 FILLER_14_53
*657 FILLER_14_65
*658 FILLER_14_77
*659 FILLER_14_83
*660 FILLER_14_85
*661 FILLER_14_97
*662 FILLER_15_105
*663 FILLER_15_111
*664 FILLER_15_113
*665 FILLER_15_125
*666 FILLER_15_137
*667 FILLER_15_1393
*668 FILLER_15_1405
*669 FILLER_15_1417
*670 FILLER_15_1429
*671 FILLER_15_1441
*672 FILLER_15_1445
*673 FILLER_15_1447
*674 FILLER_15_149
*675 FILLER_15_15
*676 FILLER_15_161
*677 FILLER_15_167
*678 FILLER_15_169
*679 FILLER_15_181
*680 FILLER_15_193
*681 FILLER_15_205
*682 FILLER_15_217
*683 FILLER_15_223
*684 FILLER_15_225
*685 FILLER_15_237
*686 FILLER_15_249
*687 FILLER_15_261
*688 FILLER_15_27
*689 FILLER_15_273
*690 FILLER_15_279
*691 FILLER_15_281
*692 FILLER_15_293
*693 FILLER_15_3
*694 FILLER_15_305
*695 FILLER_15_317
*696 FILLER_15_329
*697 FILLER_15_335
*698 FILLER_15_337
*699 FILLER_15_349
*700 FILLER_15_361
*701 FILLER_15_373
*702 FILLER_15_385
*703 FILLER_15_39
*704 FILLER_15_391
*705 FILLER_15_393
*706 FILLER_15_405
*707 FILLER_15_417
*708 FILLER_15_429
*709 FILLER_15_441
*710 FILLER_15_447
*711 FILLER_15_449
*712 FILLER_15_457
*713 FILLER_15_464
*714 FILLER_15_51
*715 FILLER_15_55
*716 FILLER_15_57
*717 FILLER_15_69
*718 FILLER_15_81
*719 FILLER_15_93
*720 FILLER_16_109
*721 FILLER_16_121
*722 FILLER_16_133
*723 FILLER_16_139
*724 FILLER_16_1393
*725 FILLER_16_1405
*726 FILLER_16_141
*727 FILLER_16_1417
*728 FILLER_16_1419
*729 FILLER_16_1431
*730 FILLER_16_1443
*731 FILLER_16_15
*732 FILLER_16_153
*733 FILLER_16_165
*734 FILLER_16_177
*735 FILLER_16_189
*736 FILLER_16_195
*737 FILLER_16_197
*738 FILLER_16_209
*739 FILLER_16_221
*740 FILLER_16_233
*741 FILLER_16_245
*742 FILLER_16_251
*743 FILLER_16_253
*744 FILLER_16_265
*745 FILLER_16_27
*746 FILLER_16_277
*747 FILLER_16_289
*748 FILLER_16_29
*749 FILLER_16_3
*750 FILLER_16_301
*751 FILLER_16_307
*752 FILLER_16_309
*753 FILLER_16_321
*754 FILLER_16_333
*755 FILLER_16_345
*756 FILLER_16_357
*757 FILLER_16_363
*758 FILLER_16_365
*759 FILLER_16_377
*760 FILLER_16_389
*761 FILLER_16_401
*762 FILLER_16_405
*763 FILLER_16_41
*764 FILLER_16_414
*765 FILLER_16_421
*766 FILLER_16_429
*767 FILLER_16_443
*768 FILLER_16_447
*769 FILLER_16_454
*770 FILLER_16_468
*771 FILLER_16_53
*772 FILLER_16_65
*773 FILLER_16_77
*774 FILLER_16_83
*775 FILLER_16_85
*776 FILLER_16_97
*777 FILLER_17_105
*778 FILLER_17_111
*779 FILLER_17_113
*780 FILLER_17_125
*781 FILLER_17_137
*782 FILLER_17_1393
*783 FILLER_17_1405
*784 FILLER_17_1417
*785 FILLER_17_1429
*786 FILLER_17_1441
*787 FILLER_17_1445
*788 FILLER_17_1447
*789 FILLER_17_149
*790 FILLER_17_15
*791 FILLER_17_161
*792 FILLER_17_167
*793 FILLER_17_169
*794 FILLER_17_181
*795 FILLER_17_193
*796 FILLER_17_205
*797 FILLER_17_217
*798 FILLER_17_223
*799 FILLER_17_225
*800 FILLER_17_237
*801 FILLER_17_249
*802 FILLER_17_261
*803 FILLER_17_27
*804 FILLER_17_273
*805 FILLER_17_279
*806 FILLER_17_281
*807 FILLER_17_293
*808 FILLER_17_3
*809 FILLER_17_305
*810 FILLER_17_317
*811 FILLER_17_329
*812 FILLER_17_335
*813 FILLER_17_337
*814 FILLER_17_349
*815 FILLER_17_361
*816 FILLER_17_373
*817 FILLER_17_385
*818 FILLER_17_39
*819 FILLER_17_391
*820 FILLER_17_393
*821 FILLER_17_405
*822 FILLER_17_417
*823 FILLER_17_425
*824 FILLER_17_432
*825 FILLER_17_446
*826 FILLER_17_449
*827 FILLER_17_459
*828 FILLER_17_467
*829 FILLER_17_51
*830 FILLER_17_55
*831 FILLER_17_57
*832 FILLER_17_69
*833 FILLER_17_81
*834 FILLER_17_93
*835 FILLER_18_109
*836 FILLER_18_121
*837 FILLER_18_133
*838 FILLER_18_139
*839 FILLER_18_1393
*840 FILLER_18_1405
*841 FILLER_18_141
*842 FILLER_18_1417
*843 FILLER_18_1419
*844 FILLER_18_1431
*845 FILLER_18_1443
*846 FILLER_18_15
*847 FILLER_18_153
*848 FILLER_18_165
*849 FILLER_18_177
*850 FILLER_18_189
*851 FILLER_18_195
*852 FILLER_18_197
*853 FILLER_18_209
*854 FILLER_18_221
*855 FILLER_18_233
*856 FILLER_18_245
*857 FILLER_18_251
*858 FILLER_18_253
*859 FILLER_18_265
*860 FILLER_18_27
*861 FILLER_18_277
*862 FILLER_18_289
*863 FILLER_18_29
*864 FILLER_18_3
*865 FILLER_18_301
*866 FILLER_18_307
*867 FILLER_18_309
*868 FILLER_18_321
*869 FILLER_18_333
*870 FILLER_18_345
*871 FILLER_18_357
*872 FILLER_18_363
*873 FILLER_18_365
*874 FILLER_18_377
*875 FILLER_18_389
*876 FILLER_18_401
*877 FILLER_18_41
*878 FILLER_18_413
*879 FILLER_18_419
*880 FILLER_18_421
*881 FILLER_18_431
*882 FILLER_18_439
*883 FILLER_18_446
*884 FILLER_18_458
*885 FILLER_18_53
*886 FILLER_18_65
*887 FILLER_18_77
*888 FILLER_18_83
*889 FILLER_18_85
*890 FILLER_18_97
*891 FILLER_19_105
*892 FILLER_19_111
*893 FILLER_19_113
*894 FILLER_19_125
*895 FILLER_19_137
*896 FILLER_19_1393
*897 FILLER_19_1405
*898 FILLER_19_1417
*899 FILLER_19_1429
*900 FILLER_19_1441
*901 FILLER_19_1445
*902 FILLER_19_1447
*903 FILLER_19_149
*904 FILLER_19_15
*905 FILLER_19_161
*906 FILLER_19_167
*907 FILLER_19_169
*908 FILLER_19_181
*909 FILLER_19_193
*910 FILLER_19_205
*911 FILLER_19_217
*912 FILLER_19_223
*913 FILLER_19_225
*914 FILLER_19_237
*915 FILLER_19_249
*916 FILLER_19_261
*917 FILLER_19_27
*918 FILLER_19_273
*919 FILLER_19_279
*920 FILLER_19_281
*921 FILLER_19_293
*922 FILLER_19_3
*923 FILLER_19_305
*924 FILLER_19_317
*925 FILLER_19_329
*926 FILLER_19_335
*927 FILLER_19_337
*928 FILLER_19_349
*929 FILLER_19_361
*930 FILLER_19_373
*931 FILLER_19_385
*932 FILLER_19_39
*933 FILLER_19_391
*934 FILLER_19_393
*935 FILLER_19_401
*936 FILLER_19_408
*937 FILLER_19_420
*938 FILLER_19_428
*939 FILLER_19_436
*940 FILLER_19_446
*941 FILLER_19_449
*942 FILLER_19_456
*943 FILLER_19_468
*944 FILLER_19_51
*945 FILLER_19_55
*946 FILLER_19_57
*947 FILLER_19_69
*948 FILLER_19_81
*949 FILLER_19_93
*950 FILLER_1_1001
*951 FILLER_1_1007
*952 FILLER_1_1009
*953 FILLER_1_1021
*954 FILLER_1_1033
*955 FILLER_1_1045
*956 FILLER_1_105
*957 FILLER_1_1057
*958 FILLER_1_1063
*959 FILLER_1_1065
*960 FILLER_1_1077
*961 FILLER_1_1089
*962 FILLER_1_1101
*963 FILLER_1_111
*964 FILLER_1_1113
*965 FILLER_1_1119
*966 FILLER_1_1121
*967 FILLER_1_113
*968 FILLER_1_1133
*969 FILLER_1_1145
*970 FILLER_1_1157
*971 FILLER_1_1169
*972 FILLER_1_1175
*973 FILLER_1_1177
*974 FILLER_1_1189
*975 FILLER_1_1201
*976 FILLER_1_1213
*977 FILLER_1_1225
*978 FILLER_1_1231
*979 FILLER_1_1233
*980 FILLER_1_1245
*981 FILLER_1_125
*982 FILLER_1_1257
*983 FILLER_1_1269
*984 FILLER_1_1281
*985 FILLER_1_1287
*986 FILLER_1_1289
*987 FILLER_1_1301
*988 FILLER_1_1313
*989 FILLER_1_1325
*990 FILLER_1_1337
*991 FILLER_1_1343
*992 FILLER_1_1345
*993 FILLER_1_1357
*994 FILLER_1_1369
*995 FILLER_1_137
*996 FILLER_1_1381
*997 FILLER_1_1393
*998 FILLER_1_1399
*999 FILLER_1_1401
*1000 FILLER_1_1413
*1001 FILLER_1_1425
*1002 FILLER_1_1437
*1003 FILLER_1_1449
*1004 FILLER_1_149
*1005 FILLER_1_15
*1006 FILLER_1_161
*1007 FILLER_1_167
*1008 FILLER_1_169
*1009 FILLER_1_181
*1010 FILLER_1_193
*1011 FILLER_1_205
*1012 FILLER_1_217
*1013 FILLER_1_223
*1014 FILLER_1_225
*1015 FILLER_1_237
*1016 FILLER_1_249
*1017 FILLER_1_261
*1018 FILLER_1_27
*1019 FILLER_1_273
*1020 FILLER_1_279
*1021 FILLER_1_281
*1022 FILLER_1_293
*1023 FILLER_1_3
*1024 FILLER_1_305
*1025 FILLER_1_317
*1026 FILLER_1_329
*1027 FILLER_1_335
*1028 FILLER_1_337
*1029 FILLER_1_349
*1030 FILLER_1_361
*1031 FILLER_1_373
*1032 FILLER_1_385
*1033 FILLER_1_39
*1034 FILLER_1_391
*1035 FILLER_1_393
*1036 FILLER_1_405
*1037 FILLER_1_417
*1038 FILLER_1_429
*1039 FILLER_1_441
*1040 FILLER_1_447
*1041 FILLER_1_449
*1042 FILLER_1_461
*1043 FILLER_1_473
*1044 FILLER_1_485
*1045 FILLER_1_497
*1046 FILLER_1_503
*1047 FILLER_1_505
*1048 FILLER_1_51
*1049 FILLER_1_517
*1050 FILLER_1_529
*1051 FILLER_1_537
*1052 FILLER_1_549
*1053 FILLER_1_55
*1054 FILLER_1_557
*1055 FILLER_1_561
*1056 FILLER_1_57
*1057 FILLER_1_573
*1058 FILLER_1_585
*1059 FILLER_1_597
*1060 FILLER_1_609
*1061 FILLER_1_615
*1062 FILLER_1_617
*1063 FILLER_1_629
*1064 FILLER_1_641
*1065 FILLER_1_653
*1066 FILLER_1_665
*1067 FILLER_1_671
*1068 FILLER_1_673
*1069 FILLER_1_685
*1070 FILLER_1_69
*1071 FILLER_1_697
*1072 FILLER_1_709
*1073 FILLER_1_721
*1074 FILLER_1_727
*1075 FILLER_1_729
*1076 FILLER_1_741
*1077 FILLER_1_753
*1078 FILLER_1_765
*1079 FILLER_1_777
*1080 FILLER_1_783
*1081 FILLER_1_785
*1082 FILLER_1_797
*1083 FILLER_1_809
*1084 FILLER_1_81
*1085 FILLER_1_821
*1086 FILLER_1_833
*1087 FILLER_1_839
*1088 FILLER_1_841
*1089 FILLER_1_853
*1090 FILLER_1_865
*1091 FILLER_1_877
*1092 FILLER_1_889
*1093 FILLER_1_895
*1094 FILLER_1_897
*1095 FILLER_1_909
*1096 FILLER_1_921
*1097 FILLER_1_93
*1098 FILLER_1_933
*1099 FILLER_1_945
*1100 FILLER_1_951
*1101 FILLER_1_953
*1102 FILLER_1_965
*1103 FILLER_1_977
*1104 FILLER_1_989
*1105 FILLER_20_109
*1106 FILLER_20_121
*1107 FILLER_20_133
*1108 FILLER_20_139
*1109 FILLER_20_1393
*1110 FILLER_20_1405
*1111 FILLER_20_141
*1112 FILLER_20_1417
*1113 FILLER_20_1419
*1114 FILLER_20_1431
*1115 FILLER_20_1443
*1116 FILLER_20_15
*1117 FILLER_20_153
*1118 FILLER_20_165
*1119 FILLER_20_177
*1120 FILLER_20_189
*1121 FILLER_20_195
*1122 FILLER_20_197
*1123 FILLER_20_209
*1124 FILLER_20_221
*1125 FILLER_20_233
*1126 FILLER_20_245
*1127 FILLER_20_251
*1128 FILLER_20_253
*1129 FILLER_20_265
*1130 FILLER_20_27
*1131 FILLER_20_277
*1132 FILLER_20_289
*1133 FILLER_20_29
*1134 FILLER_20_3
*1135 FILLER_20_301
*1136 FILLER_20_307
*1137 FILLER_20_309
*1138 FILLER_20_321
*1139 FILLER_20_333
*1140 FILLER_20_345
*1141 FILLER_20_357
*1142 FILLER_20_363
*1143 FILLER_20_365
*1144 FILLER_20_377
*1145 FILLER_20_385
*1146 FILLER_20_393
*1147 FILLER_20_397
*1148 FILLER_20_406
*1149 FILLER_20_41
*1150 FILLER_20_418
*1151 FILLER_20_421
*1152 FILLER_20_429
*1153 FILLER_20_437
*1154 FILLER_20_447
*1155 FILLER_20_459
*1156 FILLER_20_467
*1157 FILLER_20_53
*1158 FILLER_20_65
*1159 FILLER_20_77
*1160 FILLER_20_83
*1161 FILLER_20_85
*1162 FILLER_20_97
*1163 FILLER_21_105
*1164 FILLER_21_111
*1165 FILLER_21_113
*1166 FILLER_21_125
*1167 FILLER_21_137
*1168 FILLER_21_1393
*1169 FILLER_21_1405
*1170 FILLER_21_1417
*1171 FILLER_21_1429
*1172 FILLER_21_1441
*1173 FILLER_21_1445
*1174 FILLER_21_1447
*1175 FILLER_21_149
*1176 FILLER_21_15
*1177 FILLER_21_161
*1178 FILLER_21_167
*1179 FILLER_21_169
*1180 FILLER_21_181
*1181 FILLER_21_193
*1182 FILLER_21_205
*1183 FILLER_21_217
*1184 FILLER_21_223
*1185 FILLER_21_225
*1186 FILLER_21_237
*1187 FILLER_21_249
*1188 FILLER_21_261
*1189 FILLER_21_27
*1190 FILLER_21_273
*1191 FILLER_21_279
*1192 FILLER_21_281
*1193 FILLER_21_293
*1194 FILLER_21_3
*1195 FILLER_21_305
*1196 FILLER_21_317
*1197 FILLER_21_329
*1198 FILLER_21_335
*1199 FILLER_21_337
*1200 FILLER_21_349
*1201 FILLER_21_361
*1202 FILLER_21_373
*1203 FILLER_21_385
*1204 FILLER_21_39
*1205 FILLER_21_391
*1206 FILLER_21_393
*1207 FILLER_21_405
*1208 FILLER_21_413
*1209 FILLER_21_423
*1210 FILLER_21_429
*1211 FILLER_21_437
*1212 FILLER_21_445
*1213 FILLER_21_449
*1214 FILLER_21_457
*1215 FILLER_21_469
*1216 FILLER_21_51
*1217 FILLER_21_55
*1218 FILLER_21_57
*1219 FILLER_21_69
*1220 FILLER_21_81
*1221 FILLER_21_93
*1222 FILLER_22_109
*1223 FILLER_22_121
*1224 FILLER_22_133
*1225 FILLER_22_139
*1226 FILLER_22_1393
*1227 FILLER_22_1405
*1228 FILLER_22_141
*1229 FILLER_22_1417
*1230 FILLER_22_1419
*1231 FILLER_22_1431
*1232 FILLER_22_1443
*1233 FILLER_22_15
*1234 FILLER_22_153
*1235 FILLER_22_165
*1236 FILLER_22_177
*1237 FILLER_22_189
*1238 FILLER_22_195
*1239 FILLER_22_197
*1240 FILLER_22_209
*1241 FILLER_22_221
*1242 FILLER_22_233
*1243 FILLER_22_245
*1244 FILLER_22_251
*1245 FILLER_22_253
*1246 FILLER_22_265
*1247 FILLER_22_27
*1248 FILLER_22_277
*1249 FILLER_22_289
*1250 FILLER_22_29
*1251 FILLER_22_3
*1252 FILLER_22_301
*1253 FILLER_22_307
*1254 FILLER_22_309
*1255 FILLER_22_321
*1256 FILLER_22_333
*1257 FILLER_22_345
*1258 FILLER_22_357
*1259 FILLER_22_363
*1260 FILLER_22_365
*1261 FILLER_22_377
*1262 FILLER_22_389
*1263 FILLER_22_401
*1264 FILLER_22_41
*1265 FILLER_22_413
*1266 FILLER_22_419
*1267 FILLER_22_421
*1268 FILLER_22_431
*1269 FILLER_22_442
*1270 FILLER_22_454
*1271 FILLER_22_466
*1272 FILLER_22_53
*1273 FILLER_22_65
*1274 FILLER_22_77
*1275 FILLER_22_83
*1276 FILLER_22_85
*1277 FILLER_22_97
*1278 FILLER_23_105
*1279 FILLER_23_111
*1280 FILLER_23_113
*1281 FILLER_23_125
*1282 FILLER_23_137
*1283 FILLER_23_1393
*1284 FILLER_23_1405
*1285 FILLER_23_1417
*1286 FILLER_23_1429
*1287 FILLER_23_1441
*1288 FILLER_23_1445
*1289 FILLER_23_1447
*1290 FILLER_23_149
*1291 FILLER_23_15
*1292 FILLER_23_161
*1293 FILLER_23_167
*1294 FILLER_23_169
*1295 FILLER_23_181
*1296 FILLER_23_193
*1297 FILLER_23_205
*1298 FILLER_23_217
*1299 FILLER_23_223
*1300 FILLER_23_225
*1301 FILLER_23_237
*1302 FILLER_23_249
*1303 FILLER_23_261
*1304 FILLER_23_27
*1305 FILLER_23_273
*1306 FILLER_23_279
*1307 FILLER_23_281
*1308 FILLER_23_293
*1309 FILLER_23_3
*1310 FILLER_23_305
*1311 FILLER_23_317
*1312 FILLER_23_329
*1313 FILLER_23_335
*1314 FILLER_23_337
*1315 FILLER_23_349
*1316 FILLER_23_361
*1317 FILLER_23_373
*1318 FILLER_23_385
*1319 FILLER_23_39
*1320 FILLER_23_391
*1321 FILLER_23_393
*1322 FILLER_23_405
*1323 FILLER_23_417
*1324 FILLER_23_429
*1325 FILLER_23_439
*1326 FILLER_23_447
*1327 FILLER_23_449
*1328 FILLER_23_461
*1329 FILLER_23_469
*1330 FILLER_23_51
*1331 FILLER_23_55
*1332 FILLER_23_57
*1333 FILLER_23_69
*1334 FILLER_23_81
*1335 FILLER_23_93
*1336 FILLER_24_109
*1337 FILLER_24_121
*1338 FILLER_24_133
*1339 FILLER_24_139
*1340 FILLER_24_1393
*1341 FILLER_24_1405
*1342 FILLER_24_141
*1343 FILLER_24_1417
*1344 FILLER_24_1419
*1345 FILLER_24_1431
*1346 FILLER_24_1443
*1347 FILLER_24_15
*1348 FILLER_24_153
*1349 FILLER_24_165
*1350 FILLER_24_177
*1351 FILLER_24_189
*1352 FILLER_24_195
*1353 FILLER_24_197
*1354 FILLER_24_209
*1355 FILLER_24_221
*1356 FILLER_24_233
*1357 FILLER_24_245
*1358 FILLER_24_251
*1359 FILLER_24_253
*1360 FILLER_24_265
*1361 FILLER_24_27
*1362 FILLER_24_277
*1363 FILLER_24_289
*1364 FILLER_24_29
*1365 FILLER_24_3
*1366 FILLER_24_301
*1367 FILLER_24_307
*1368 FILLER_24_309
*1369 FILLER_24_321
*1370 FILLER_24_333
*1371 FILLER_24_345
*1372 FILLER_24_357
*1373 FILLER_24_363
*1374 FILLER_24_365
*1375 FILLER_24_377
*1376 FILLER_24_383
*1377 FILLER_24_391
*1378 FILLER_24_403
*1379 FILLER_24_41
*1380 FILLER_24_410
*1381 FILLER_24_418
*1382 FILLER_24_421
*1383 FILLER_24_430
*1384 FILLER_24_434
*1385 FILLER_24_444
*1386 FILLER_24_448
*1387 FILLER_24_460
*1388 FILLER_24_468
*1389 FILLER_24_53
*1390 FILLER_24_65
*1391 FILLER_24_77
*1392 FILLER_24_83
*1393 FILLER_24_85
*1394 FILLER_24_97
*1395 FILLER_25_105
*1396 FILLER_25_111
*1397 FILLER_25_113
*1398 FILLER_25_125
*1399 FILLER_25_137
*1400 FILLER_25_1393
*1401 FILLER_25_1405
*1402 FILLER_25_1417
*1403 FILLER_25_1429
*1404 FILLER_25_1441
*1405 FILLER_25_1445
*1406 FILLER_25_1447
*1407 FILLER_25_149
*1408 FILLER_25_15
*1409 FILLER_25_161
*1410 FILLER_25_167
*1411 FILLER_25_169
*1412 FILLER_25_181
*1413 FILLER_25_193
*1414 FILLER_25_205
*1415 FILLER_25_217
*1416 FILLER_25_223
*1417 FILLER_25_225
*1418 FILLER_25_237
*1419 FILLER_25_249
*1420 FILLER_25_261
*1421 FILLER_25_27
*1422 FILLER_25_273
*1423 FILLER_25_279
*1424 FILLER_25_281
*1425 FILLER_25_293
*1426 FILLER_25_3
*1427 FILLER_25_305
*1428 FILLER_25_317
*1429 FILLER_25_329
*1430 FILLER_25_335
*1431 FILLER_25_337
*1432 FILLER_25_349
*1433 FILLER_25_361
*1434 FILLER_25_373
*1435 FILLER_25_385
*1436 FILLER_25_39
*1437 FILLER_25_391
*1438 FILLER_25_393
*1439 FILLER_25_408
*1440 FILLER_25_420
*1441 FILLER_25_428
*1442 FILLER_25_436
*1443 FILLER_25_445
*1444 FILLER_25_449
*1445 FILLER_25_461
*1446 FILLER_25_469
*1447 FILLER_25_51
*1448 FILLER_25_55
*1449 FILLER_25_57
*1450 FILLER_25_69
*1451 FILLER_25_81
*1452 FILLER_25_93
*1453 FILLER_26_109
*1454 FILLER_26_121
*1455 FILLER_26_133
*1456 FILLER_26_139
*1457 FILLER_26_1393
*1458 FILLER_26_1405
*1459 FILLER_26_141
*1460 FILLER_26_1417
*1461 FILLER_26_1419
*1462 FILLER_26_1431
*1463 FILLER_26_1443
*1464 FILLER_26_15
*1465 FILLER_26_153
*1466 FILLER_26_165
*1467 FILLER_26_177
*1468 FILLER_26_189
*1469 FILLER_26_195
*1470 FILLER_26_197
*1471 FILLER_26_209
*1472 FILLER_26_221
*1473 FILLER_26_233
*1474 FILLER_26_245
*1475 FILLER_26_251
*1476 FILLER_26_253
*1477 FILLER_26_265
*1478 FILLER_26_27
*1479 FILLER_26_277
*1480 FILLER_26_289
*1481 FILLER_26_29
*1482 FILLER_26_3
*1483 FILLER_26_301
*1484 FILLER_26_307
*1485 FILLER_26_309
*1486 FILLER_26_321
*1487 FILLER_26_333
*1488 FILLER_26_345
*1489 FILLER_26_357
*1490 FILLER_26_363
*1491 FILLER_26_365
*1492 FILLER_26_377
*1493 FILLER_26_389
*1494 FILLER_26_392
*1495 FILLER_26_401
*1496 FILLER_26_41
*1497 FILLER_26_413
*1498 FILLER_26_419
*1499 FILLER_26_421
*1500 FILLER_26_439
*1501 FILLER_26_447
*1502 FILLER_26_459
*1503 FILLER_26_467
*1504 FILLER_26_53
*1505 FILLER_26_65
*1506 FILLER_26_77
*1507 FILLER_26_83
*1508 FILLER_26_85
*1509 FILLER_26_97
*1510 FILLER_27_105
*1511 FILLER_27_111
*1512 FILLER_27_113
*1513 FILLER_27_125
*1514 FILLER_27_137
*1515 FILLER_27_1393
*1516 FILLER_27_1405
*1517 FILLER_27_1417
*1518 FILLER_27_1429
*1519 FILLER_27_1441
*1520 FILLER_27_1445
*1521 FILLER_27_1447
*1522 FILLER_27_149
*1523 FILLER_27_15
*1524 FILLER_27_161
*1525 FILLER_27_167
*1526 FILLER_27_169
*1527 FILLER_27_181
*1528 FILLER_27_193
*1529 FILLER_27_205
*1530 FILLER_27_217
*1531 FILLER_27_223
*1532 FILLER_27_225
*1533 FILLER_27_237
*1534 FILLER_27_249
*1535 FILLER_27_261
*1536 FILLER_27_27
*1537 FILLER_27_273
*1538 FILLER_27_279
*1539 FILLER_27_281
*1540 FILLER_27_293
*1541 FILLER_27_3
*1542 FILLER_27_305
*1543 FILLER_27_317
*1544 FILLER_27_329
*1545 FILLER_27_335
*1546 FILLER_27_337
*1547 FILLER_27_349
*1548 FILLER_27_361
*1549 FILLER_27_373
*1550 FILLER_27_385
*1551 FILLER_27_39
*1552 FILLER_27_391
*1553 FILLER_27_393
*1554 FILLER_27_405
*1555 FILLER_27_417
*1556 FILLER_27_425
*1557 FILLER_27_429
*1558 FILLER_27_438
*1559 FILLER_27_446
*1560 FILLER_27_449
*1561 FILLER_27_461
*1562 FILLER_27_469
*1563 FILLER_27_51
*1564 FILLER_27_55
*1565 FILLER_27_57
*1566 FILLER_27_69
*1567 FILLER_27_81
*1568 FILLER_27_93
*1569 FILLER_28_109
*1570 FILLER_28_121
*1571 FILLER_28_133
*1572 FILLER_28_139
*1573 FILLER_28_1393
*1574 FILLER_28_1405
*1575 FILLER_28_141
*1576 FILLER_28_1417
*1577 FILLER_28_1419
*1578 FILLER_28_1431
*1579 FILLER_28_1443
*1580 FILLER_28_15
*1581 FILLER_28_153
*1582 FILLER_28_165
*1583 FILLER_28_177
*1584 FILLER_28_189
*1585 FILLER_28_195
*1586 FILLER_28_197
*1587 FILLER_28_209
*1588 FILLER_28_221
*1589 FILLER_28_233
*1590 FILLER_28_245
*1591 FILLER_28_251
*1592 FILLER_28_253
*1593 FILLER_28_265
*1594 FILLER_28_27
*1595 FILLER_28_277
*1596 FILLER_28_289
*1597 FILLER_28_29
*1598 FILLER_28_3
*1599 FILLER_28_301
*1600 FILLER_28_307
*1601 FILLER_28_309
*1602 FILLER_28_321
*1603 FILLER_28_333
*1604 FILLER_28_345
*1605 FILLER_28_357
*1606 FILLER_28_363
*1607 FILLER_28_365
*1608 FILLER_28_377
*1609 FILLER_28_389
*1610 FILLER_28_401
*1611 FILLER_28_41
*1612 FILLER_28_413
*1613 FILLER_28_419
*1614 FILLER_28_421
*1615 FILLER_28_429
*1616 FILLER_28_441
*1617 FILLER_28_453