*SPEF "ieee 1481-1999"
*DESIGN "tt_um_ternaryPC_radixconvert"
*DATE "11:11:11 Fri 11 11, 1111"
*VENDOR "OpenRCX"
*PROGRAM "Parallel Extraction"
*VERSION "1.0"
*DESIGN_FLOW "NAME_SCOPE LOCAL" "PIN_CAP NONE"
*DIVIDER /
*DELIMITER :
*BUS_DELIMITER []
*T_UNIT 1 NS
*C_UNIT 1 PF
*R_UNIT 1 OHM
*L_UNIT 1 HENRY

*NAME_MAP
*1 clk
*2 ena
*3 rst_n
*4 ui_in[0]
*5 ui_in[1]
*6 ui_in[2]
*7 ui_in[3]
*8 ui_in[4]
*9 ui_in[5]
*10 ui_in[6]
*11 ui_in[7]
*12 uio_in[0]
*13 uio_in[1]
*14 uio_in[2]
*15 uio_in[3]
*16 uio_in[4]
*17 uio_in[5]
*18 uio_in[6]
*19 uio_in[7]
*20 net16
*21 net17
*22 net18
*23 net19
*24 net20
*25 net21
*26 net12
*27 net13
*28 uio_out[0]
*29 uio_out[1]
*30 uio_out[2]
*31 uio_out[3]
*32 uio_out[4]
*33 uio_out[5]
*34 net14
*35 net15
*36 uo_out[0]
*37 uo_out[1]
*38 uo_out[2]
*39 uo_out[3]
*40 uo_out[4]
*41 uo_out[5]
*42 uo_out[6]
*43 uo_out[7]
*46 SavedGate_0\.SavedGate_0\.SavedGate_0\.SavedGate_1\.LogicGate_0\.out\[0\]
*47 SavedGate_0\.SavedGate_0\.SavedGate_0\.SavedGate_1\.LogicGate_0\.out\[1\]
*48 SavedGate_0\.SavedGate_2\.SavedGate_0\.SavedGate_1\.LogicGate_0\.out\[0\]
*49 SavedGate_0\.SavedGate_2\.SavedGate_0\.SavedGate_1\.LogicGate_0\.out\[1\]
*50 SavedGate_0\.SavedGate_4\.SavedGate_0\.SavedGate_1\.LogicGate_0\.out\[0\]
*51 SavedGate_0\.SavedGate_4\.SavedGate_0\.SavedGate_1\.LogicGate_0\.out\[1\]
*52 SavedGate_0\.SavedGate_6\.SavedGate_0\.SavedGate_1\.LogicGate_0\.out\[0\]
*53 SavedGate_0\.SavedGate_6\.SavedGate_0\.SavedGate_1\.LogicGate_0\.out\[1\]
*54 _000_
*55 _001_
*56 _002_
*57 _003_
*58 _004_
*59 _005_
*60 _006_
*61 _007_
*62 _016_
*63 _017_
*64 _018_
*65 _019_
*66 _020_
*67 _021_
*68 _022_
*69 _023_
*70 _024_
*71 _025_
*72 _026_
*73 _027_
*74 _028_
*75 _029_
*76 _030_
*77 _031_
*78 _032_
*79 _033_
*80 _034_
*81 _035_
*82 _036_
*83 _037_
*84 _038_
*85 _039_
*86 _040_
*87 _041_
*88 _042_
*89 _043_
*90 _044_
*91 _045_
*92 _046_
*93 _047_
*94 _048_
*95 _049_
*96 _050_
*97 _051_
*98 _052_
*99 _053_
*100 _054_
*101 _055_
*102 _056_
*103 _057_
*104 _058_
*105 _059_
*106 _060_
*107 _061_
*108 _062_
*109 _063_
*110 _064_
*111 _065_
*112 _066_
*113 _067_
*114 _068_
*115 _069_
*116 _070_
*117 _071_
*118 _072_
*119 _073_
*120 _074_
*121 _075_
*122 _076_
*123 _077_
*124 _078_
*125 _079_
*126 _080_
*127 _081_
*128 _082_
*129 _083_
*130 _084_
*131 _085_
*132 _086_
*133 _087_
*134 _088_
*135 _089_
*136 _090_
*137 _091_
*138 _092_
*139 _093_
*140 _094_
*141 _095_
*142 _096_
*143 _097_
*144 _098_
*145 _099_
*146 _100_
*147 _101_
*148 _102_
*149 _103_
*150 _104_
*151 _105_
*152 _106_
*153 _107_
*154 _108_
*155 _109_
*156 _110_
*157 _111_
*158 _112_
*159 _113_
*160 _114_
*161 clknet_0_clk
*162 clknet_1_0__leaf_clk
*163 clknet_1_1__leaf_clk
*164 net1
*165 net10
*166 net11
*167 net2
*168 net22
*169 net23
*170 net24
*171 net25
*172 net26
*173 net27
*174 net28
*175 net29
*176 net3
*177 net4
*178 net5
*179 net6
*180 net7
*181 net8
*182 net9
*183 FILLER_0_109
*184 FILLER_0_113
*185 FILLER_0_125
*186 FILLER_0_137
*187 FILLER_0_141
*188 FILLER_0_15
*189 FILLER_0_153
*190 FILLER_0_165
*191 FILLER_0_169
*192 FILLER_0_181
*193 FILLER_0_193
*194 FILLER_0_197
*195 FILLER_0_209
*196 FILLER_0_221
*197 FILLER_0_225
*198 FILLER_0_237
*199 FILLER_0_249
*200 FILLER_0_253
*201 FILLER_0_265
*202 FILLER_0_27
*203 FILLER_0_277
*204 FILLER_0_281
*205 FILLER_0_29
*206 FILLER_0_293
*207 FILLER_0_3
*208 FILLER_0_305
*209 FILLER_0_309
*210 FILLER_0_321
*211 FILLER_0_333
*212 FILLER_0_337
*213 FILLER_0_41
*214 FILLER_0_53
*215 FILLER_0_57
*216 FILLER_0_69
*217 FILLER_0_81
*218 FILLER_0_85
*219 FILLER_0_97
*220 FILLER_10_109
*221 FILLER_10_121
*222 FILLER_10_133
*223 FILLER_10_139
*224 FILLER_10_141
*225 FILLER_10_15
*226 FILLER_10_153
*227 FILLER_10_165
*228 FILLER_10_177
*229 FILLER_10_189
*230 FILLER_10_195
*231 FILLER_10_197
*232 FILLER_10_209
*233 FILLER_10_221
*234 FILLER_10_233
*235 FILLER_10_245
*236 FILLER_10_251
*237 FILLER_10_253
*238 FILLER_10_265
*239 FILLER_10_27
*240 FILLER_10_277
*241 FILLER_10_289
*242 FILLER_10_29
*243 FILLER_10_3
*244 FILLER_10_301
*245 FILLER_10_307
*246 FILLER_10_309
*247 FILLER_10_321
*248 FILLER_10_333
*249 FILLER_10_337
*250 FILLER_10_41
*251 FILLER_10_53
*252 FILLER_10_65
*253 FILLER_10_77
*254 FILLER_10_83
*255 FILLER_10_85
*256 FILLER_10_97
*257 FILLER_11_105
*258 FILLER_11_111
*259 FILLER_11_113
*260 FILLER_11_125
*261 FILLER_11_137
*262 FILLER_11_149
*263 FILLER_11_15
*264 FILLER_11_161
*265 FILLER_11_167
*266 FILLER_11_169
*267 FILLER_11_181
*268 FILLER_11_193
*269 FILLER_11_205
*270 FILLER_11_217
*271 FILLER_11_223
*272 FILLER_11_225
*273 FILLER_11_237
*274 FILLER_11_249
*275 FILLER_11_261
*276 FILLER_11_27
*277 FILLER_11_273
*278 FILLER_11_279
*279 FILLER_11_281
*280 FILLER_11_293
*281 FILLER_11_3
*282 FILLER_11_305
*283 FILLER_11_317
*284 FILLER_11_329
*285 FILLER_11_335
*286 FILLER_11_337
*287 FILLER_11_39
*288 FILLER_11_51
*289 FILLER_11_55
*290 FILLER_11_57
*291 FILLER_11_69
*292 FILLER_11_81
*293 FILLER_11_93
*294 FILLER_12_109
*295 FILLER_12_121
*296 FILLER_12_133
*297 FILLER_12_139
*298 FILLER_12_141
*299 FILLER_12_15
*300 FILLER_12_153
*301 FILLER_12_165
*302 FILLER_12_177
*303 FILLER_12_189
*304 FILLER_12_195
*305 FILLER_12_197
*306 FILLER_12_209
*307 FILLER_12_221
*308 FILLER_12_233
*309 FILLER_12_245
*310 FILLER_12_251
*311 FILLER_12_253
*312 FILLER_12_265
*313 FILLER_12_27
*314 FILLER_12_277
*315 FILLER_12_289
*316 FILLER_12_29
*317 FILLER_12_3
*318 FILLER_12_301
*319 FILLER_12_307
*320 FILLER_12_309
*321 FILLER_12_321
*322 FILLER_12_333
*323 FILLER_12_337
*324 FILLER_12_41
*325 FILLER_12_53
*326 FILLER_12_65
*327 FILLER_12_77
*328 FILLER_12_83
*329 FILLER_12_85
*330 FILLER_12_97
*331 FILLER_13_105
*332 FILLER_13_111
*333 FILLER_13_113
*334 FILLER_13_125
*335 FILLER_13_137
*336 FILLER_13_149
*337 FILLER_13_15
*338 FILLER_13_161
*339 FILLER_13_167
*340 FILLER_13_169
*341 FILLER_13_181
*342 FILLER_13_193
*343 FILLER_13_205
*344 FILLER_13_217
*345 FILLER_13_223
*346 FILLER_13_225
*347 FILLER_13_237
*348 FILLER_13_249
*349 FILLER_13_261
*350 FILLER_13_27
*351 FILLER_13_273
*352 FILLER_13_279
*353 FILLER_13_281
*354 FILLER_13_293
*355 FILLER_13_3
*356 FILLER_13_305
*357 FILLER_13_317
*358 FILLER_13_329
*359 FILLER_13_335
*360 FILLER_13_337
*361 FILLER_13_39
*362 FILLER_13_51
*363 FILLER_13_55
*364 FILLER_13_57
*365 FILLER_13_69
*366 FILLER_13_81
*367 FILLER_13_93
*368 FILLER_14_109
*369 FILLER_14_121
*370 FILLER_14_133
*371 FILLER_14_139
*372 FILLER_14_141
*373 FILLER_14_15
*374 FILLER_14_153
*375 FILLER_14_165
*376 FILLER_14_177
*377 FILLER_14_189
*378 FILLER_14_195
*379 FILLER_14_197
*380 FILLER_14_209
*381 FILLER_14_221
*382 FILLER_14_233
*383 FILLER_14_245
*384 FILLER_14_251
*385 FILLER_14_253
*386 FILLER_14_265
*387 FILLER_14_27
*388 FILLER_14_277
*389 FILLER_14_289
*390 FILLER_14_29
*391 FILLER_14_3
*392 FILLER_14_301
*393 FILLER_14_307
*394 FILLER_14_309
*395 FILLER_14_321
*396 FILLER_14_333
*397 FILLER_14_337
*398 FILLER_14_41
*399 FILLER_14_53
*400 FILLER_14_65
*401 FILLER_14_77
*402 FILLER_14_83
*403 FILLER_14_85
*404 FILLER_14_97
*405 FILLER_15_105
*406 FILLER_15_111
*407 FILLER_15_113
*408 FILLER_15_125
*409 FILLER_15_137
*410 FILLER_15_149
*411 FILLER_15_15
*412 FILLER_15_161
*413 FILLER_15_167
*414 FILLER_15_169
*415 FILLER_15_181
*416 FILLER_15_193
*417 FILLER_15_205
*418 FILLER_15_217
*419 FILLER_15_223
*420 FILLER_15_225
*421 FILLER_15_237
*422 FILLER_15_249
*423 FILLER_15_261
*424 FILLER_15_27
*425 FILLER_15_273
*426 FILLER_15_279
*427 FILLER_15_281
*428 FILLER_15_293
*429 FILLER_15_3
*430 FILLER_15_305
*431 FILLER_15_317
*432 FILLER_15_329
*433 FILLER_15_335
*434 FILLER_15_337
*435 FILLER_15_39
*436 FILLER_15_51
*437 FILLER_15_55
*438 FILLER_15_57
*439 FILLER_15_69
*440 FILLER_15_81
*441 FILLER_15_93
*442 FILLER_16_109
*443 FILLER_16_121
*444 FILLER_16_133
*445 FILLER_16_139
*446 FILLER_16_141
*447 FILLER_16_15
*448 FILLER_16_153
*449 FILLER_16_165
*450 FILLER_16_177
*451 FILLER_16_189
*452 FILLER_16_195
*453 FILLER_16_197
*454 FILLER_16_209
*455 FILLER_16_221
*456 FILLER_16_233
*457 FILLER_16_245
*458 FILLER_16_251
*459 FILLER_16_253
*460 FILLER_16_265
*461 FILLER_16_27
*462 FILLER_16_277
*463 FILLER_16_289
*464 FILLER_16_29
*465 FILLER_16_3
*466 FILLER_16_301
*467 FILLER_16_307
*468 FILLER_16_309
*469 FILLER_16_321
*470 FILLER_16_333
*471 FILLER_16_337
*472 FILLER_16_41
*473 FILLER_16_53
*474 FILLER_16_65
*475 FILLER_16_77
*476 FILLER_16_83
*477 FILLER_16_85
*478 FILLER_16_97
*479 FILLER_17_105
*480 FILLER_17_111
*481 FILLER_17_113
*482 FILLER_17_125
*483 FILLER_17_137
*484 FILLER_17_149
*485 FILLER_17_15
*486 FILLER_17_161
*487 FILLER_17_167
*488 FILLER_17_169
*489 FILLER_17_181
*490 FILLER_17_193
*491 FILLER_17_205
*492 FILLER_17_217
*493 FILLER_17_223
*494 FILLER_17_225
*495 FILLER_17_237
*496 FILLER_17_249
*497 FILLER_17_261
*498 FILLER_17_27
*499 FILLER_17_273
*500 FILLER_17_279
*501 FILLER_17_281
*502 FILLER_17_293
*503 FILLER_17_3
*504 FILLER_17_305
*505 FILLER_17_317
*506 FILLER_17_329
*507 FILLER_17_335
*508 FILLER_17_337
*509 FILLER_17_39
*510 FILLER_17_51
*511 FILLER_17_55
*512 FILLER_17_57
*513 FILLER_17_69
*514 FILLER_17_81
*515 FILLER_17_93
*516 FILLER_18_109
*517 FILLER_18_121
*518 FILLER_18_133
*519 FILLER_18_139
*520 FILLER_18_141
*521 FILLER_18_15
*522 FILLER_18_153
*523 FILLER_18_165
*524 FILLER_18_177
*525 FILLER_18_189
*526 FILLER_18_195
*527 FILLER_18_197
*528 FILLER_18_209
*529 FILLER_18_221
*530 FILLER_18_233
*531 FILLER_18_245
*532 FILLER_18_251
*533 FILLER_18_253
*534 FILLER_18_265
*535 FILLER_18_27
*536 FILLER_18_277
*537 FILLER_18_289
*538 FILLER_18_29
*539 FILLER_18_3
*540 FILLER_18_301
*541 FILLER_18_307
*542 FILLER_18_309
*543 FILLER_18_321
*544 FILLER_18_333
*545 FILLER_18_337
*546 FILLER_18_41
*547 FILLER_18_53
*548 FILLER_18_65
*549 FILLER_18_77
*550 FILLER_18_83
*551 FILLER_18_85
*552 FILLER_18_97
*553 FILLER_19_105
*554 FILLER_19_111
*555 FILLER_19_113
*556 FILLER_19_125
*557 FILLER_19_137
*558 FILLER_19_149
*559 FILLER_19_15
*560 FILLER_19_161
*561 FILLER_19_167
*562 FILLER_19_169
*563 FILLER_19_181
*564 FILLER_19_193
*565 FILLER_19_205
*566 FILLER_19_217
*567 FILLER_19_223
*568 FILLER_19_225
*569 FILLER_19_237
*570 FILLER_19_249
*571 FILLER_19_261
*572 FILLER_19_27
*573 FILLER_19_273
*574 FILLER_19_279
*575 FILLER_19_281
*576 FILLER_19_293
*577 FILLER_19_3
*578 FILLER_19_305
*579 FILLER_19_317
*580 FILLER_19_329
*581 FILLER_19_335
*582 FILLER_19_337
*583 FILLER_19_39
*584 FILLER_19_51
*585 FILLER_19_55
*586 FILLER_19_57
*587 FILLER_19_69
*588 FILLER_19_81
*589 FILLER_19_93
*590 FILLER_1_105
*591 FILLER_1_111
*592 FILLER_1_113
*593 FILLER_1_125
*594 FILLER_1_137
*595 FILLER_1_149
*596 FILLER_1_15
*597 FILLER_1_161
*598 FILLER_1_167
*599 FILLER_1_169
*600 FILLER_1_181
*601 FILLER_1_193
*602 FILLER_1_205
*603 FILLER_1_217
*604 FILLER_1_223
*605 FILLER_1_225
*606 FILLER_1_237
*607 FILLER_1_249
*608 FILLER_1_261
*609 FILLER_1_27
*610 FILLER_1_273
*611 FILLER_1_279
*612 FILLER_1_281
*613 FILLER_1_293
*614 FILLER_1_3
*615 FILLER_1_305
*616 FILLER_1_317
*617 FILLER_1_329
*618 FILLER_1_335
*619 FILLER_1_337
*620 FILLER_1_39
*621 FILLER_1_51
*622 FILLER_1_55
*623 FILLER_1_57
*624 FILLER_1_69
*625 FILLER_1_81
*626 FILLER_1_93
*627 FILLER_20_109
*628 FILLER_20_121
*629 FILLER_20_133
*630 FILLER_20_139
*631 FILLER_20_141
*632 FILLER_20_15
*633 FILLER_20_153
*634 FILLER_20_165
*635 FILLER_20_177
*636 FILLER_20_189
*637 FILLER_20_195
*638 FILLER_20_197
*639 FILLER_20_209
*640 FILLER_20_221
*641 FILLER_20_233
*642 FILLER_20_245
*643 FILLER_20_251
*644 FILLER_20_253
*645 FILLER_20_265
*646 FILLER_20_27
*647 FILLER_20_277
*648 FILLER_20_289
*649 FILLER_20_29
*650 FILLER_20_3
*651 FILLER_20_301
*652 FILLER_20_307
*653 FILLER_20_309
*654 FILLER_20_321
*655 FILLER_20_333
*656 FILLER_20_337
*657 FILLER_20_41
*658 FILLER_20_53
*659 FILLER_20_65
*660 FILLER_20_77
*661 FILLER_20_83
*662 FILLER_20_85
*663 FILLER_20_97
*664 FILLER_21_105
*665 FILLER_21_111
*666 FILLER_21_113
*667 FILLER_21_125
*668 FILLER_21_137
*669 FILLER_21_149
*670 FILLER_21_15
*671 FILLER_21_161
*672 FILLER_21_167
*673 FILLER_21_169
*674 FILLER_21_181
*675 FILLER_21_193
*676 FILLER_21_205
*677 FILLER_21_217
*678 FILLER_21_223
*679 FILLER_21_225
*680 FILLER_21_237
*681 FILLER_21_249
*682 FILLER_21_261
*683 FILLER_21_27
*684 FILLER_21_273
*685 FILLER_21_279
*686 FILLER_21_281
*687 FILLER_21_293
*688 FILLER_21_3
*689 FILLER_21_305
*690 FILLER_21_317
*691 FILLER_21_329
*692 FILLER_21_335
*693 FILLER_21_337
*694 FILLER_21_39
*695 FILLER_21_51
*696 FILLER_21_55
*697 FILLER_21_57
*698 FILLER_21_69
*699 FILLER_21_81
*700 FILLER_21_93
*701 FILLER_22_109
*702 FILLER_22_121
*703 FILLER_22_133
*704 FILLER_22_139
*705 FILLER_22_141
*706 FILLER_22_15
*707 FILLER_22_153
*708 FILLER_22_165
*709 FILLER_22_177
*710 FILLER_22_189
*711 FILLER_22_195
*712 FILLER_22_197
*713 FILLER_22_209
*714 FILLER_22_221
*715 FILLER_22_233
*716 FILLER_22_245
*717 FILLER_22_251
*718 FILLER_22_253
*719 FILLER_22_265
*720 FILLER_22_27
*721 FILLER_22_277
*722 FILLER_22_289
*723 FILLER_22_29
*724 FILLER_22_3
*725 FILLER_22_301
*726 FILLER_22_307
*727 FILLER_22_309
*728 FILLER_22_321
*729 FILLER_22_333
*730 FILLER_22_337
*731 FILLER_22_41
*732 FILLER_22_53
*733 FILLER_22_65
*734 FILLER_22_77
*735 FILLER_22_83
*736 FILLER_22_85
*737 FILLER_22_97
*738 FILLER_23_105
*739 FILLER_23_111
*740 FILLER_23_113
*741 FILLER_23_125
*742 FILLER_23_137
*743 FILLER_23_149
*744 FILLER_23_15
*745 FILLER_23_161
*746 FILLER_23_167
*747 FILLER_23_169
*748 FILLER_23_181
*749 FILLER_23_193
*750 FILLER_23_205
*751 FILLER_23_217
*752 FILLER_23_223
*753 FILLER_23_225
*754 FILLER_23_237
*755 FILLER_23_249
*756 FILLER_23_261
*757 FILLER_23_27
*758 FILLER_23_273
*759 FILLER_23_279
*760 FILLER_23_281
*761 FILLER_23_293
*762 FILLER_23_3
*763 FILLER_23_305
*764 FILLER_23_317
*765 FILLER_23_329
*766 FILLER_23_335
*767 FILLER_23_337
*768 FILLER_23_39
*769 FILLER_23_51
*770 FILLER_23_55
*771 FILLER_23_57
*772 FILLER_23_69
*773 FILLER_23_81
*774 FILLER_23_93
*775 FILLER_24_109
*776 FILLER_24_121
*777 FILLER_24_133
*778 FILLER_24_139
*779 FILLER_24_141
*780 FILLER_24_15
*781 FILLER_24_153
*782 FILLER_24_165
*783 FILLER_24_177
*784 FILLER_24_189
*785 FILLER_24_195
*786 FILLER_24_197
*787 FILLER_24_209
*788 FILLER_24_221
*789 FILLER_24_233
*790 FILLER_24_245
*791 FILLER_24_251
*792 FILLER_24_253
*793 FILLER_24_265
*794 FILLER_24_27
*795 FILLER_24_277
*796 FILLER_24_289
*797 FILLER_24_29
*798 FILLER_24_3
*799 FILLER_24_301
*800 FILLER_24_307
*801 FILLER_24_309
*802 FILLER_24_321
*803 FILLER_24_333
*804 FILLER_24_337
*805 FILLER_24_41
*806 FILLER_24_53
*807 FILLER_24_65
*808 FILLER_24_77
*809 FILLER_24_83
*810 FILLER_24_85
*811 FILLER_24_97
*812 FILLER_25_105
*813 FILLER_25_111
*814 FILLER_25_113
*815 FILLER_25_125
*816 FILLER_25_137
*817 FILLER_25_149
*818 FILLER_25_15
*819 FILLER_25_161
*820 FILLER_25_167
*821 FILLER_25_169
*822 FILLER_25_181
*823 FILLER_25_193
*824 FILLER_25_205
*825 FILLER_25_217
*826 FILLER_25_223
*827 FILLER_25_225
*828 FILLER_25_237
*829 FILLER_25_249
*830 FILLER_25_261
*831 FILLER_25_27
*832 FILLER_25_273
*833 FILLER_25_279
*834 FILLER_25_281
*835 FILLER_25_293
*836 FILLER_25_3
*837 FILLER_25_305
*838 FILLER_25_317
*839 FILLER_25_329
*840 FILLER_25_335
*841 FILLER_25_337
*842 FILLER_25_39
*843 FILLER_25_51
*844 FILLER_25_55
*845 FILLER_25_57
*846 FILLER_25_69
*847 FILLER_25_81
*848 FILLER_25_93
*849 FILLER_26_109
*850 FILLER_26_121
*851 FILLER_26_133
*852 FILLER_26_139
*853 FILLER_26_141
*854 FILLER_26_15
*855 FILLER_26_153
*856 FILLER_26_165
*857 FILLER_26_177
*858 FILLER_26_189
*859 FILLER_26_195
*860 FILLER_26_197
*861 FILLER_26_209
*862 FILLER_26_221
*863 FILLER_26_233
*864 FILLER_26_245
*865 FILLER_26_251
*866 FILLER_26_253
*867 FILLER_26_265
*868 FILLER_26_27
*869 FILLER_26_289
*870 FILLER_26_29
*871 FILLER_26_3
*872 FILLER_26_301
*873 FILLER_26_307
*874 FILLER_26_309
*875 FILLER_26_321
*876 FILLER_26_333
*877 FILLER_26_337
*878 FILLER_26_41
*879 FILLER_26_53
*880 FILLER_26_65
*881 FILLER_26_77
*882 FILLER_26_83
*883 FILLER_26_85
*884 FILLER_26_97
*885 FILLER_27_105
*886 FILLER_27_111
*887 FILLER_27_113
*888 FILLER_27_125
*889 FILLER_27_137
*890 FILLER_27_149
*891 FILLER_27_15
*892 FILLER_27_161
*893 FILLER_27_167
*894 FILLER_27_169
*895 FILLER_27_181
*896 FILLER_27_193
*897 FILLER_27_201
*898 FILLER_27_209
*899 FILLER_27_216
*900 FILLER_27_225
*901 FILLER_27_240
*902 FILLER_27_247
*903 FILLER_27_259
*904 FILLER_27_27
*905 FILLER_27_271
*906 FILLER_27_277
*907 FILLER_27_281
*908 FILLER_27_287
*909 FILLER_27_291
*910 FILLER_27_299
*911 FILLER_27_3
*912 FILLER_27_303
*913 FILLER_27_310
*914 FILLER_27_317
*915 FILLER_27_329
*916 FILLER_27_335
*917 FILLER_27_337
*918 FILLER_27_39
*919 FILLER_27_51
*920 FILLER_27_55
*921 FILLER_27_57
*922 FILLER_27_69
*923 FILLER_27_81
*924 FILLER_27_93
*925 FILLER_28_109
*926 FILLER_28_121
*927 FILLER_28_133
*928 FILLER_28_139
*929 FILLER_28_141
*930 FILLER_28_15
*931 FILLER_28_152
*932 FILLER_28_160
*933 FILLER_28_166
*934 FILLER_28_181
*935 FILLER_28_189
*936 FILLER_28_194
*937 FILLER_28_197
*938 FILLER_28_209
*939 FILLER_28_222
*940 FILLER_28_226
*941 FILLER_28_234
*942 FILLER_28_246
*943 FILLER_28_253
*944 FILLER_28_261
*945 FILLER_28_267
*946 FILLER_28_27
*947 FILLER_28_29
*948 FILLER_28_290
*949 FILLER_28_297
*950 FILLER_28_3
*951 FILLER_28_304
*952 FILLER_28_309
*953 FILLER_28_314
*954 FILLER_28_321
*955 FILLER_28_328
*956 FILLER_28_336
*957 FILLER_28_41
*958 FILLER_28_53
*959 FILLER_28_65
*960 FILLER_28_77
*961 FILLER_28_83
*962 FILLER_28_85
*963 FILLER_28_97
*964 FILLER_29_105
*965 FILLER_29_111
*966 FILLER_29_113
*967 FILLER_29_125
*968 FILLER_29_137
*969 FILLER_29_145
*970 FILLER_29_15
*971 FILLER_29_150
*972 FILLER_29_160
*973 FILLER_29_169
*974 FILLER_29_175
*975 FILLER_29_181
*976 FILLER_29_194
*977 FILLER_29_207
*978 FILLER_29_218
*979 FILLER_29_225
*980 FILLER_29_239
*981 FILLER_29_251
*982 FILLER_29_262
*983 FILLER_29_266
*984 FILLER_29_27
*985 FILLER_29_270
*986 FILLER_29_277
*987 FILLER_29_281
*988 FILLER_29_299
*989 FILLER_29_3
*990 FILLER_29_307
*991 FILLER_29_313
*992 FILLER_29_333
*993 FILLER_29_337
*994 FILLER_29_39
*995 FILLER_29_51
*996 FILLER_29_55
*997 FILLER_29_57
*998 FILLER_29_69
*999 FILLER_29_81
*1000 FILLER_29_93
*1001 FILLER_2_109
*1002 FILLER_2_121
*1003 FILLER_2_133
*1004 FILLER_2_139
*1005 FILLER_2_141
*1006 FILLER_2_15
*1007 FILLER_2_153
*1008 FILLER_2_165
*1009 FILLER_2_177
*1010 FILLER_2_189
*1011 FILLER_2_195
*1012 FILLER_2_197
*1013 FILLER_2_209
*1014 FILLER_2_221
*1015 FILLER_2_233
*1016 FILLER_2_245
*1017 FILLER_2_251
*1018 FILLER_2_253
*1019 FILLER_2_265
*1020 FILLER_2_27
*1021 FILLER_2_277
*1022 FILLER_2_289
*1023 FILLER_2_29
*1024 FILLER_2_3
*1025 FILLER_2_301
*1026 FILLER_2_307
*1027 FILLER_2_309
*1028 FILLER_2_321
*1029 FILLER_2_333
*1030 FILLER_2_337
*1031 FILLER_2_41
*1032 FILLER_2_53
*1033 FILLER_2_65
*1034 FILLER_2_77
*1035 FILLER_2_83
*1036 FILLER_2_85
*1037 FILLER_2_97
*1038 FILLER_30_114
*1039 FILLER_30_126
*1040 FILLER_30_138
*1041 FILLER_30_141
*1042 FILLER_30_147
*1043 FILLER_30_15
*1044 FILLER_30_153
*1045 FILLER_30_163
*1046 FILLER_30_169
*1047 FILLER_30_178
*1048 FILLER_30_190
*1049 FILLER_30_197
*1050 FILLER_30_208
*1051 FILLER_30_219
*1052 FILLER_30_230
*1053 FILLER_30_241
*1054 FILLER_30_248
*1055 FILLER_30_253
*1056 FILLER_30_262
*1057 FILLER_30_27
*1058 FILLER_30_270
*1059 FILLER_30_29
*1060 FILLER_30_291
*1061 FILLER_30_299
*1062 FILLER_30_3
*1063 FILLER_30_306
*1064 FILLER_30_309
*1065 FILLER_30_332
*1066 FILLER_30_41
*1067 FILLER_30_53
*1068 FILLER_30_65
*1069 FILLER_30_77
*1070 FILLER_30_83
*1071 FILLER_30_85
*1072 FILLER_30_93
*1073 FILLER_30_99
*1074 FILLER_31_106
*1075 FILLER_31_110
*1076 FILLER_31_113
*1077 FILLER_31_121
*1078 FILLER_31_128
*1079 FILLER_31_136
*1080 FILLER_31_15
*1081 FILLER_31_151
*1082 FILLER_31_161
*1083 FILLER_31_167
*1084 FILLER_31_169
*1085 FILLER_31_181
*1086 FILLER_31_188
*1087 FILLER_31_197
*1088 FILLER_31_206
*1089 FILLER_31_213
*1090 FILLER_31_220
*1091 FILLER_31_225
*1092 FILLER_31_246
*1093 FILLER_31_258
*1094 FILLER_31_27
*1095 FILLER_31_278
*1096 FILLER_31_281
*1097 FILLER_31_287
*1098 FILLER_31_295
*1099 FILLER_31_3
*1100 FILLER_31_319
*1101 FILLER_31_327
*1102 FILLER_31_334
*1103 FILLER_31_337
*1104 FILLER_31_39
*1105 FILLER_31_51
*1106 FILLER_31_55
*1107 FILLER_31_57
*1108 FILLER_31_69
*1109 FILLER_31_80
*1110 FILLER_31_87
*1111 FILLER_31_93
*1112 FILLER_31_98
*1113 FILLER_32_109
*1114 FILLER_32_120
*1115 FILLER_32_131
*1116 FILLER_32_139
*1117 FILLER_32_141
*1118 FILLER_32_147
*1119 FILLER_32_15
*1120 FILLER_32_160
*1121 FILLER_32_174
*1122 FILLER_32_186
*1123 FILLER_32_194
*1124 FILLER_32_197
*1125 FILLER_32_208
*1126 FILLER_32_215
*1127 FILLER_32_227
*1128 FILLER_32_233
*1129 FILLER_32_246
*1130 FILLER_32_253
*1131 FILLER_32_263
*1132 FILLER_32_27
*1133 FILLER_32_271
*1134 FILLER_32_289
*1135 FILLER_32_29
*1136 FILLER_32_295
*1137 FILLER_32_3
*1138 FILLER_32_306
*1139 FILLER_32_309
*1140 FILLER_32_334
*1141 FILLER_32_41
*1142 FILLER_32_53
*1143 FILLER_32_65
*1144 FILLER_32_76
*1145 FILLER_32_85
*1146 FILLER_32_96
*1147 FILLER_33_105
*1148 FILLER_33_111
*1149 FILLER_33_113
*1150 FILLER_33_121
*1151 FILLER_33_127
*1152 FILLER_33_135
*1153 FILLER_33_141
*1154 FILLER_33_149
*1155 FILLER_33_15
*1156 FILLER_33_157
*1157 FILLER_33_166
*1158 FILLER_33_169
*1159 FILLER_33_176
*1160 FILLER_33_194
*1161 FILLER_33_208
*1162 FILLER_33_219
*1163 FILLER_33_223
*1164 FILLER_33_225
*1165 FILLER_33_236
*1166 FILLER_33_250
*1167 FILLER_33_258
*1168 FILLER_33_27
*1169 FILLER_33_278
*1170 FILLER_33_281
*1171 FILLER_33_293
*1172 FILLER_33_297
*1173 FILLER_33_3
*1174 FILLER_33_318
*1175 FILLER_33_332
*1176 FILLER_33_337
*1177 FILLER_33_39
*1178 FILLER_33_51
*1179 FILLER_33_55
*1180 FILLER_33_57
*1181 FILLER_33_65
*1182 FILLER_33_69
*1183 FILLER_33_82
*1184 FILLER_33_94
*1185 FILLER_34_104
*1186 FILLER_34_113
*1187 FILLER_34_122
*1188 FILLER_34_128
*1189 FILLER_34_138
*1190 FILLER_34_141
*1191 FILLER_34_150
*1192 FILLER_34_158
*1193 FILLER_34_167
*1194 FILLER_34_181
*1195 FILLER_34_194
*1196 FILLER_34_197
*1197 FILLER_34_20
*1198 FILLER_34_201
*1199 FILLER_34_210
*1200 FILLER_34_221
*1201 FILLER_34_227
*1202 FILLER_34_236
*1203 FILLER_34_250
*1204 FILLER_34_253
*1205 FILLER_34_263
*1206 FILLER_34_283
*1207 FILLER_34_29
*1208 FILLER_34_3
*1209 FILLER_34_306
*1210 FILLER_34_309
*1211 FILLER_34_334
*1212 FILLER_34_41
*1213 FILLER_34_53
*1214 FILLER_34_64
*1215 FILLER_34_72
*1216 FILLER_34_8
*1217 FILLER_34_82
*1218 FILLER_34_85
*1219 FILLER_34_96
*1220 FILLER_35_101
*1221 FILLER_35_110
*1222 FILLER_35_113
*1223 FILLER_35_12
*1224 FILLER_35_120
*1225 FILLER_35_128
*1226 FILLER_35_132
*1227 FILLER_35_138
*1228 FILLER_35_141
*1229 FILLER_35_150
*1230 FILLER_35_158
*1231 FILLER_35_166
*1232 FILLER_35_169
*1233 FILLER_35_174
*1234 FILLER_35_182
*1235 FILLER_35_187
*1236 FILLER_35_19
*1237 FILLER_35_194
*1238 FILLER_35_197
*1239 FILLER_35_211
*1240 FILLER_35_218
*1241 FILLER_35_225
*1242 FILLER_35_230
*1243 FILLER_35_250
*1244 FILLER_35_253
*1245 FILLER_35_258
*1246 FILLER_35_26
*1247 FILLER_35_278
*1248 FILLER_35_281
*1249 FILLER_35_29
*1250 FILLER_35_3
*1251 FILLER_35_306
*1252 FILLER_35_309
*1253 FILLER_35_330
*1254 FILLER_35_337
*1255 FILLER_35_40
*1256 FILLER_35_47
*1257 FILLER_35_54
*1258 FILLER_35_57
*1259 FILLER_35_64
*1260 FILLER_35_71
*1261 FILLER_35_78
*1262 FILLER_35_85
*1263 FILLER_35_91
*1264 FILLER_3_105
*1265 FILLER_3_111
*1266 FILLER_3_113
*1267 FILLER_3_125
*1268 FILLER_3_137
*1269 FILLER_3_149
*1270 FILLER_3_15
*1271 FILLER_3_161
*1272 FILLER_3_167
*1273 FILLER_3_169
*1274 FILLER_3_181
*1275 FILLER_3_193
*1276 FILLER_3_205
*1277 FILLER_3_217
*1278 FILLER_3_223
*1279 FILLER_3_225
*1280 FILLER_3_237
*1281 FILLER_3_249
*1282 FILLER_3_261
*1283 FILLER_3_27
*1284 FILLER_3_273
*1285 FILLER_3_279
*1286 FILLER_3_281
*1287 FILLER_3_293
*1288 FILLER_3_3
*1289 FILLER_3_305
*1290 FILLER_3_317
*1291 FILLER_3_329
*1292 FILLER_3_335
*1293 FILLER_3_337
*1294 FILLER_3_39
*1295 FILLER_3_51
*1296 FILLER_3_55
*1297 FILLER_3_57
*1298 FILLER_3_69
*1299 FILLER_3_81
*1300 FILLER_3_93
*1301 FILLER_4_109
*1302 FILLER_4_121
*1303 FILLER_4_133
*1304 FILLER_4_139
*1305 FILLER_4_141
*1306 FILLER_4_15
*1307 FILLER_4_153
*1308 FILLER_4_165
*1309 FILLER_4_177
*1310 FILLER_4_189
*1311 FILLER_4_195
*1312 FILLER_4_197
*1313 FILLER_4_209
*1314 FILLER_4_221
*1315 FILLER_4_233
*1316 FILLER_4_245
*1317 FILLER_4_251
*1318 FILLER_4_253
*1319 FILLER_4_265
*1320 FILLER_4_27
*1321 FILLER_4_277
*1322 FILLER_4_289
*1323 FILLER_4_29
*1324 FILLER_4_3
*1325 FILLER_4_301
*1326 FILLER_4_307
*1327 FILLER_4_309
*1328 FILLER_4_321
*1329 FILLER_4_333
*1330 FILLER_4_337
*1331 FILLER_4_41
*1332 FILLER_4_53
*1333 FILLER_4_65
*1334 FILLER_4_77
*1335 FILLER_4_83
*1336 FILLER_4_85
*1337 FILLER_4_97
*1338 FILLER_5_105
*1339 FILLER_5_111
*1340 FILLER_5_113
*1341 FILLER_5_125
*1342 FILLER_5_137
*1343 FILLER_5_149
*1344 FILLER_5_15
*1345 FILLER_5_161
*1346 FILLER_5_167
*1347 FILLER_5_169
*1348 FILLER_5_181
*1349 FILLER_5_193
*1350 FILLER_5_205
*1351 FILLER_5_217
*1352 FILLER_5_223
*1353 FILLER_5_225
*1354 FILLER_5_237
*1355 FILLER_5_249
*1356 FILLER_5_261
*1357 FILLER_5_27
*1358 FILLER_5_273
*1359 FILLER_5_279
*1360 FILLER_5_281
*1361 FILLER_5_293
*1362 FILLER_5_3
*1363 FILLER_5_305
*1364 FILLER_5_317
*1365 FILLER_5_329
*1366 FILLER_5_335
*1367 FILLER_5_337
*1368 FILLER_5_39
*1369 FILLER_5_51
*1370 FILLER_5_55
*1371 FILLER_5_57
*1372 FILLER_5_69
*1373 FILLER_5_81
*1374 FILLER_5_93
*1375 FILLER_6_109
*1376 FILLER_6_121
*1377 FILLER_6_133
*1378 FILLER_6_139
*1379 FILLER_6_141
*1380 FILLER_6_15
*1381 FILLER_6_153
*1382 FILLER_6_165
*1383 FILLER_6_177
*1384 FILLER_6_189
*1385 FILLER_6_195
*1386 FILLER_6_197
*1387 FILLER_6_209
*1388 FILLER_6_221
*1389 FILLER_6_233
*1390 FILLER_6_245
*1391 FILLER_6_251
*1392 FILLER_6_253
*1393 FILLER_6_265
*1394 FILLER_6_27
*1395 FILLER_6_277
*1396 FILLER_6_289
*1397 FILLER_6_29
*1398 FILLER_6_3
*1399 FILLER_6_301
*1400 FILLER_6_307
*1401 FILLER_6_309
*1402 FILLER_6_321
*1403 FILLER_6_333
*1404 FILLER_6_337
*1405 FILLER_6_41
*1406 FILLER_6_53
*1407 FILLER_6_65
*1408 FILLER_6_77
*1409 FILLER_6_83
*1410 FILLER_6_85
*1411 FILLER_6_97
*1412 FILLER_7_105
*1413 FILLER_7_111
*1414 FILLER_7_113
*1415 FILLER_7_125
*1416 FILLER_7_137
*1417 FILLER_7_149
*1418 FILLER_7_15
*1419 FILLER_7_161
*1420 FILLER_7_167
*1421 FILLER_7_169
*1422 FILLER_7_181
*1423 FILLER_7_193
*1424 FILLER_7_205
*1425 FILLER_7_217
*1426 FILLER_7_223
*1427 FILLER_7_225
*1428 FILLER_7_237
*1429 FILLER_7_249
*1430 FILLER_7_261
*1431 FILLER_7_27
*1432 FILLER_7_273
*1433 FILLER_7_279
*1434 FILLER_7_281
*1435 FILLER_7_293
*1436 FILLER_7_3
*1437 FILLER_7_305
*1438 FILLER_7_317
*1439 FILLER_7_329
*1440 FILLER_7_335
*1441 FILLER_7_337
*1442 FILLER_7_39
*1443 FILLER_7_51
*1444 FILLER_7_55
*1445 FILLER_7_57
*1446 FILLER_7_69
*1447 FILLER_7_81
*1448 FILLER_7_93
*1449 FILLER_8_109
*1450 FILLER_8_121
*1451 FILLER_8_133
*1452 FILLER_8_139
*1453 FILLER_8_141
*1454 FILLER_8_15
*1455 FILLER_8_153
*1456 FILLER_8_165
*1457 FILLER_8_177
*1458 FILLER_8_189
*1459 FILLER_8_195
*1460 FILLER_8_197
*1461 FILLER_8_209
*1462 FILLER_8_221
*1463 FILLER_8_233
*1464 FILLER_8_245
*1465 FILLER_8_251
*1466 FILLER_8_253
*1467 FILLER_8_265
*1468 FILLER_8_27
*1469 FILLER_8_277
*1470 FILLER_8_289
*1471 FILLER_8_29
*1472 FILLER_8_3
*1473 FILLER_8_301
*1474 FILLER_8_307
*1475 FILLER_8_309
*1476 FILLER_8_321
*1477 FILLER_8_333
*1478 FILLER_8_337
*1479 FILLER_8_41
*1480 FILLER_8_53
*1481 FILLER_8_65
*1482 FILLER_8_77
*1483 FILLER_8_83
*1484 FILLER_8_85
*1485 FILLER_8_97
*1486 FILLER_9_105
*1487 FILLER_9_111
*1488 FILLER_9_113
*1489 FILLER_9_125
*1490 FILLER_9_137
*1491 FILLER_9_149
*1492 FILLER_9_15
*1493 FILLER_9_161
*1494 FILLER_9_167
*1495 FILLER_9_169
*1496 FILLER_9_181
*1497 FILLER_9_193
*1498 FILLER_9_205
*1499 FILLER_9_217
*1500 FILLER_9_223
*1501 FILLER_9_225
*1502 FILLER_9_237
*1503 FILLER_9_249
*1504 FILLER_9_261
*1505 FILLER_9_27
*1506 FILLER_9_273
*1507 FILLER_9_279
*1508 FILLER_9_281
*1509 FILLER_9_293
*1510 FILLER_9_3
*1511 FILLER_9_305
*1512 FILLER_9_317
*1513 FILLER_9_329
*1514 FILLER_9_335
*1515 FILLER_9_337
*1516 FILLER_9_39
*1517 FILLER_9_51
*1518 FILLER_9_55
*1519 FILLER_9_57
*1520 FILLER_9_69
*1521 FILLER_9_81
*1522 FILLER_9_93
*1523 PHY_0
*1524 PHY_1
*1525 PHY_10
*1526 PHY_11
*1527 PHY_12
*1528 PHY_13
*1529 PHY_14
*1530 PHY_15
*1531 PHY_16
*1532 PHY_17
*1533 PHY_18
*1534 PHY_19
*1535 PHY_2
*1536 PHY_20
*1537 PHY_21
*1538 PHY_22
*1539 PHY_23
*1540 PHY_24
*1541 PHY_25
*1542 PHY_26
*1543 PHY_27
*1544 PHY_28
*1545 PHY_29
*1546 PHY_3
*1547 PHY_30
*1548 PHY_31
*1549 PHY_32
*1550 PHY_33
*1551 PHY_34
*1552 PHY_35
*1553 PHY_36
*1554 PHY_37
*1555 PHY_38
*1556 PHY_39
*1557 PHY_4
*1558 PHY_40
*1559 PHY_41
*1560 PHY_42
*1561 PHY_43
*1562 PHY_44
*1563 PHY_45
*1564 PHY_46
*1565 PHY_47
*1566 PHY_48
*1567 PHY_49
*1568 PHY_5
*1569 PHY_50
*1570 PHY_51
*1571 PHY_52
*1572 PHY_53
*1573 PHY_54
*1574 PHY_55
*1575 PHY_56
*1576 PHY_57
*1577 PHY_58
*1578 PHY_59
*1579 PHY_6
*1580 PHY_60
*1581 PHY_61
*1582 PHY_62
*1583 PHY_63
*1584 PHY_64
*1585 PHY_65
*1586 PHY_66
*1587 PHY_67
*1588 PHY_68
*1589 PHY_69
*1590 PHY_7
*1591 PHY_70
*1592 PHY_71
*1593 PHY_8
*1594 PHY_9
*1595 TAP_100
*1596 TAP_101
*1597 TAP_102
*1598 TAP_103
*1599 TAP_104
*1600 TAP_105
*1601 TAP_106
*1602 TAP_107
*1603 TAP_108
*1604 TAP_109
*1605 TAP_110
*1606 TAP_111
*1607 TAP_112
*1608 TAP_113
*1609 TAP_114
*1610 TAP_115
*1611 TAP_116
*1612 TAP_117
*1613 TAP_118
*1614 TAP_119
*1615 TAP_120
*1616 TAP_121
*1617 TAP_122
*1618 TAP_123
*1619 TAP_124
*1620 TAP_125
*1621 TAP_126
*1622 TAP_127
*1623 TAP_128
*1624 TAP_129
*1625 TAP_130
*1626 TAP_131
*1627 TAP_132
*1628 TAP_133
*1629 TAP_134
*1630 TAP_135
*1631 TAP_136
*1632 TAP_137
*1633 TAP_138
*1634 TAP_139
*1635 TAP_140
*1636 TAP_141
*1637 TAP_142
*1638 TAP_143
*1639 TAP_144
*1640 TAP_145
*1641 TAP_146
*1642 TAP_147
*1643 TAP_148
*1644 TAP_149
*1645 TAP_150
*1646 TAP_151
*1647 TAP_152
*1648 TAP_153
*1649 TAP_154
*1650 TAP_155
*1651 TAP_156
*1652 TAP_157
*1653 TAP_158
*1654 TAP_159
*1655 TAP_160
*1656 TAP_161
*1657 TAP_162
*1658 TAP_163
*1659 TAP_164
*1660 TAP_165
*1661 TAP_166
*1662 TAP_167
*1663 TAP_168
*1664 TAP_169
*1665 TAP_170
*1666 TAP_171