*SPEF "ieee 1481-1999"
*DESIGN "tt_um_test"
*DATE "11:11:11 Fri 11 11, 1111"
*VENDOR "OpenRCX"
*PROGRAM "Parallel Extraction"
*VERSION "1.0"
*DESIGN_FLOW "NAME_SCOPE LOCAL" "PIN_CAP NONE"
*DIVIDER /
*DELIMITER :
*BUS_DELIMITER []
*T_UNIT 1 NS
*C_UNIT 1 PF
*R_UNIT 1 OHM
*L_UNIT 1 HENRY

*NAME_MAP
*1 clk
*2 ena
*3 rst_n
*4 ui_in[0]
*5 ui_in[1]
*6 ui_in[2]
*7 ui_in[3]
*8 ui_in[4]
*9 ui_in[5]
*10 ui_in[6]
*11 ui_in[7]
*12 uio_in[0]
*13 uio_in[1]
*14 uio_in[2]
*15 uio_in[3]
*16 uio_in[4]
*17 uio_in[5]
*18 uio_in[6]
*19 uio_in[7]
*20 uio_oe[0]
*21 uio_oe[1]
*22 uio_oe[2]
*23 uio_oe[3]
*24 uio_oe[4]
*25 uio_oe[5]
*26 uio_oe[6]
*27 uio_oe[7]
*28 uio_out[0]
*29 uio_out[1]
*30 uio_out[2]
*31 uio_out[3]
*32 uio_out[4]
*33 uio_out[5]
*34 uio_out[6]
*35 uio_out[7]
*36 uo_out[0]
*37 uo_out[1]
*38 uo_out[2]
*39 uo_out[3]
*40 uo_out[4]
*41 uo_out[5]
*42 uo_out[6]
*43 uo_out[7]
*46 _000_
*47 _001_
*48 _002_
*49 _003_
*50 _004_
*51 _005_
*52 _006_
*53 _007_
*54 _008_
*55 _009_
*56 _010_
*57 _011_
*58 _012_
*59 _013_
*60 _014_
*61 _015_
*62 _016_
*63 _017_
*64 _018_
*65 _019_
*66 _020_
*67 _021_
*68 _022_
*69 _023_
*70 _024_
*71 _025_
*72 _026_
*73 _027_
*74 _028_
*75 _029_
*76 _030_
*77 _031_
*78 _032_
*79 _033_
*80 clknet_0_clk
*81 clknet_1_0__leaf_clk
*82 clknet_1_1__leaf_clk
*83 cnt\[0\]
*84 cnt\[1\]
*85 cnt\[2\]
*86 cnt\[3\]
*87 cnt\[4\]
*88 cnt\[5\]
*89 cnt\[6\]
*90 cnt\[7\]
*91 net1
*92 net10
*93 net11
*94 net12
*95 net13
*96 net14
*97 net2
*98 net3
*99 net4
*100 net5
*101 net6
*102 net7
*103 net8
*104 net9
*105 rst_n_i
*106 FILLER_0_109
*107 FILLER_0_113
*108 FILLER_0_125
*109 FILLER_0_137
*110 FILLER_0_141
*111 FILLER_0_15
*112 FILLER_0_153
*113 FILLER_0_165
*114 FILLER_0_169
*115 FILLER_0_181
*116 FILLER_0_193
*117 FILLER_0_197
*118 FILLER_0_209
*119 FILLER_0_221
*120 FILLER_0_225
*121 FILLER_0_237
*122 FILLER_0_249
*123 FILLER_0_253
*124 FILLER_0_265
*125 FILLER_0_27
*126 FILLER_0_277
*127 FILLER_0_281
*128 FILLER_0_29
*129 FILLER_0_293
*130 FILLER_0_3
*131 FILLER_0_305
*132 FILLER_0_309
*133 FILLER_0_321
*134 FILLER_0_333
*135 FILLER_0_337
*136 FILLER_0_41
*137 FILLER_0_53
*138 FILLER_0_57
*139 FILLER_0_69
*140 FILLER_0_81
*141 FILLER_0_85
*142 FILLER_0_97
*143 FILLER_10_109
*144 FILLER_10_121
*145 FILLER_10_133
*146 FILLER_10_139
*147 FILLER_10_141
*148 FILLER_10_15
*149 FILLER_10_153
*150 FILLER_10_165
*151 FILLER_10_177
*152 FILLER_10_189
*153 FILLER_10_195
*154 FILLER_10_197
*155 FILLER_10_209
*156 FILLER_10_221
*157 FILLER_10_233
*158 FILLER_10_245
*159 FILLER_10_251
*160 FILLER_10_253
*161 FILLER_10_265
*162 FILLER_10_27
*163 FILLER_10_277
*164 FILLER_10_289
*165 FILLER_10_29
*166 FILLER_10_3
*167 FILLER_10_301
*168 FILLER_10_307
*169 FILLER_10_309
*170 FILLER_10_321
*171 FILLER_10_333
*172 FILLER_10_337
*173 FILLER_10_41
*174 FILLER_10_53
*175 FILLER_10_65
*176 FILLER_10_77
*177 FILLER_10_83
*178 FILLER_10_85
*179 FILLER_10_97
*180 FILLER_11_105
*181 FILLER_11_111
*182 FILLER_11_113
*183 FILLER_11_125
*184 FILLER_11_137
*185 FILLER_11_149
*186 FILLER_11_15
*187 FILLER_11_161
*188 FILLER_11_167
*189 FILLER_11_169
*190 FILLER_11_181
*191 FILLER_11_193
*192 FILLER_11_205
*193 FILLER_11_217
*194 FILLER_11_223
*195 FILLER_11_225
*196 FILLER_11_237
*197 FILLER_11_249
*198 FILLER_11_261
*199 FILLER_11_27
*200 FILLER_11_273
*201 FILLER_11_279
*202 FILLER_11_281
*203 FILLER_11_293
*204 FILLER_11_3
*205 FILLER_11_305
*206 FILLER_11_317
*207 FILLER_11_329
*208 FILLER_11_335
*209 FILLER_11_337
*210 FILLER_11_39
*211 FILLER_11_51
*212 FILLER_11_55
*213 FILLER_11_57
*214 FILLER_11_69
*215 FILLER_11_81
*216 FILLER_11_93
*217 FILLER_12_109
*218 FILLER_12_121
*219 FILLER_12_133
*220 FILLER_12_139
*221 FILLER_12_141
*222 FILLER_12_15
*223 FILLER_12_153
*224 FILLER_12_165
*225 FILLER_12_177
*226 FILLER_12_189
*227 FILLER_12_195
*228 FILLER_12_197
*229 FILLER_12_209
*230 FILLER_12_221
*231 FILLER_12_233
*232 FILLER_12_245
*233 FILLER_12_251
*234 FILLER_12_253
*235 FILLER_12_265
*236 FILLER_12_27
*237 FILLER_12_277
*238 FILLER_12_289
*239 FILLER_12_29
*240 FILLER_12_3
*241 FILLER_12_301
*242 FILLER_12_307
*243 FILLER_12_309
*244 FILLER_12_321
*245 FILLER_12_333
*246 FILLER_12_337
*247 FILLER_12_41
*248 FILLER_12_53
*249 FILLER_12_65
*250 FILLER_12_77
*251 FILLER_12_83
*252 FILLER_12_85
*253 FILLER_12_97
*254 FILLER_13_105
*255 FILLER_13_111
*256 FILLER_13_113
*257 FILLER_13_125
*258 FILLER_13_137
*259 FILLER_13_149
*260 FILLER_13_15
*261 FILLER_13_161
*262 FILLER_13_167
*263 FILLER_13_169
*264 FILLER_13_181
*265 FILLER_13_193
*266 FILLER_13_205
*267 FILLER_13_217
*268 FILLER_13_223
*269 FILLER_13_225
*270 FILLER_13_237
*271 FILLER_13_249
*272 FILLER_13_261
*273 FILLER_13_27
*274 FILLER_13_273
*275 FILLER_13_279
*276 FILLER_13_281
*277 FILLER_13_293
*278 FILLER_13_3
*279 FILLER_13_305
*280 FILLER_13_317
*281 FILLER_13_329
*282 FILLER_13_335
*283 FILLER_13_337
*284 FILLER_13_39
*285 FILLER_13_51
*286 FILLER_13_55
*287 FILLER_13_57
*288 FILLER_13_69
*289 FILLER_13_81
*290 FILLER_13_93
*291 FILLER_14_109
*292 FILLER_14_121
*293 FILLER_14_133
*294 FILLER_14_139
*295 FILLER_14_141
*296 FILLER_14_15
*297 FILLER_14_153
*298 FILLER_14_165
*299 FILLER_14_177
*300 FILLER_14_189
*301 FILLER_14_195
*302 FILLER_14_197
*303 FILLER_14_209
*304 FILLER_14_221
*305 FILLER_14_233
*306 FILLER_14_245
*307 FILLER_14_251
*308 FILLER_14_253
*309 FILLER_14_265
*310 FILLER_14_27
*311 FILLER_14_277
*312 FILLER_14_289
*313 FILLER_14_29
*314 FILLER_14_3
*315 FILLER_14_301
*316 FILLER_14_307
*317 FILLER_14_309
*318 FILLER_14_321
*319 FILLER_14_333
*320 FILLER_14_337
*321 FILLER_14_41
*322 FILLER_14_53
*323 FILLER_14_65
*324 FILLER_14_77
*325 FILLER_14_83
*326 FILLER_14_85
*327 FILLER_14_97
*328 FILLER_15_105
*329 FILLER_15_111
*330 FILLER_15_113
*331 FILLER_15_125
*332 FILLER_15_137
*333 FILLER_15_149
*334 FILLER_15_15
*335 FILLER_15_161
*336 FILLER_15_167
*337 FILLER_15_169
*338 FILLER_15_181
*339 FILLER_15_193
*340 FILLER_15_205
*341 FILLER_15_217
*342 FILLER_15_223
*343 FILLER_15_225
*344 FILLER_15_237
*345 FILLER_15_249
*346 FILLER_15_261
*347 FILLER_15_27
*348 FILLER_15_273
*349 FILLER_15_279
*350 FILLER_15_281
*351 FILLER_15_293
*352 FILLER_15_3
*353 FILLER_15_305
*354 FILLER_15_317
*355 FILLER_15_329
*356 FILLER_15_335
*357 FILLER_15_337
*358 FILLER_15_39
*359 FILLER_15_51
*360 FILLER_15_55
*361 FILLER_15_57
*362 FILLER_15_69
*363 FILLER_15_81
*364 FILLER_15_93
*365 FILLER_16_109
*366 FILLER_16_121
*367 FILLER_16_133
*368 FILLER_16_139
*369 FILLER_16_141
*370 FILLER_16_15
*371 FILLER_16_153
*372 FILLER_16_165
*373 FILLER_16_177
*374 FILLER_16_189
*375 FILLER_16_195
*376 FILLER_16_197
*377 FILLER_16_209
*378 FILLER_16_221
*379 FILLER_16_233
*380 FILLER_16_245
*381 FILLER_16_251
*382 FILLER_16_253
*383 FILLER_16_265
*384 FILLER_16_27
*385 FILLER_16_277
*386 FILLER_16_289
*387 FILLER_16_29
*388 FILLER_16_3
*389 FILLER_16_301
*390 FILLER_16_307
*391 FILLER_16_309
*392 FILLER_16_321
*393 FILLER_16_333
*394 FILLER_16_337
*395 FILLER_16_41
*396 FILLER_16_53
*397 FILLER_16_65
*398 FILLER_16_77
*399 FILLER_16_83
*400 FILLER_16_85
*401 FILLER_16_97
*402 FILLER_17_105
*403 FILLER_17_111
*404 FILLER_17_113
*405 FILLER_17_125
*406 FILLER_17_137
*407 FILLER_17_149
*408 FILLER_17_15
*409 FILLER_17_161
*410 FILLER_17_167
*411 FILLER_17_169
*412 FILLER_17_181
*413 FILLER_17_193
*414 FILLER_17_205
*415 FILLER_17_217
*416 FILLER_17_223
*417 FILLER_17_225
*418 FILLER_17_237
*419 FILLER_17_249
*420 FILLER_17_261
*421 FILLER_17_27
*422 FILLER_17_273
*423 FILLER_17_279
*424 FILLER_17_281
*425 FILLER_17_293
*426 FILLER_17_3
*427 FILLER_17_305
*428 FILLER_17_317
*429 FILLER_17_329
*430 FILLER_17_335
*431 FILLER_17_337
*432 FILLER_17_39
*433 FILLER_17_51
*434 FILLER_17_55
*435 FILLER_17_57
*436 FILLER_17_69
*437 FILLER_17_81
*438 FILLER_17_93
*439 FILLER_18_109
*440 FILLER_18_121
*441 FILLER_18_133
*442 FILLER_18_139
*443 FILLER_18_141
*444 FILLER_18_15
*445 FILLER_18_153
*446 FILLER_18_165
*447 FILLER_18_177
*448 FILLER_18_189
*449 FILLER_18_195
*450 FILLER_18_197
*451 FILLER_18_209
*452 FILLER_18_221
*453 FILLER_18_233
*454 FILLER_18_245
*455 FILLER_18_251
*456 FILLER_18_253
*457 FILLER_18_265
*458 FILLER_18_27
*459 FILLER_18_277
*460 FILLER_18_289
*461 FILLER_18_29
*462 FILLER_18_3
*463 FILLER_18_301
*464 FILLER_18_307
*465 FILLER_18_309
*466 FILLER_18_321
*467 FILLER_18_333
*468 FILLER_18_337
*469 FILLER_18_41
*470 FILLER_18_53
*471 FILLER_18_65
*472 FILLER_18_77
*473 FILLER_18_83
*474 FILLER_18_85
*475 FILLER_18_97
*476 FILLER_19_105
*477 FILLER_19_111
*478 FILLER_19_113
*479 FILLER_19_125
*480 FILLER_19_137
*481 FILLER_19_149
*482 FILLER_19_15
*483 FILLER_19_161
*484 FILLER_19_167
*485 FILLER_19_169
*486 FILLER_19_181
*487 FILLER_19_193
*488 FILLER_19_205
*489 FILLER_19_217
*490 FILLER_19_223
*491 FILLER_19_225
*492 FILLER_19_237
*493 FILLER_19_249
*494 FILLER_19_261
*495 FILLER_19_27
*496 FILLER_19_273
*497 FILLER_19_279
*498 FILLER_19_281
*499 FILLER_19_293
*500 FILLER_19_3
*501 FILLER_19_305
*502 FILLER_19_317
*503 FILLER_19_329
*504 FILLER_19_335
*505 FILLER_19_337
*506 FILLER_19_39
*507 FILLER_19_51
*508 FILLER_19_55
*509 FILLER_19_57
*510 FILLER_19_69
*511 FILLER_19_81
*512 FILLER_19_93
*513 FILLER_1_105
*514 FILLER_1_111
*515 FILLER_1_113
*516 FILLER_1_125
*517 FILLER_1_137
*518 FILLER_1_149
*519 FILLER_1_15
*520 FILLER_1_161
*521 FILLER_1_167
*522 FILLER_1_169
*523 FILLER_1_181
*524 FILLER_1_193
*525 FILLER_1_205
*526 FILLER_1_217
*527 FILLER_1_223
*528 FILLER_1_225
*529 FILLER_1_237
*530 FILLER_1_249
*531 FILLER_1_261
*532 FILLER_1_27
*533 FILLER_1_273
*534 FILLER_1_279
*535 FILLER_1_281
*536 FILLER_1_293
*537 FILLER_1_3
*538 FILLER_1_305
*539 FILLER_1_317
*540 FILLER_1_329
*541 FILLER_1_335
*542 FILLER_1_337
*543 FILLER_1_39
*544 FILLER_1_51
*545 FILLER_1_55
*546 FILLER_1_57
*547 FILLER_1_69
*548 FILLER_1_81
*549 FILLER_1_93
*550 FILLER_20_109
*551 FILLER_20_121
*552 FILLER_20_133
*553 FILLER_20_139
*554 FILLER_20_141
*555 FILLER_20_15
*556 FILLER_20_153
*557 FILLER_20_165
*558 FILLER_20_177
*559 FILLER_20_189
*560 FILLER_20_195
*561 FILLER_20_197
*562 FILLER_20_209
*563 FILLER_20_221
*564 FILLER_20_233
*565 FILLER_20_245
*566 FILLER_20_251
*567 FILLER_20_253
*568 FILLER_20_265
*569 FILLER_20_27
*570 FILLER_20_277
*571 FILLER_20_289
*572 FILLER_20_29
*573 FILLER_20_3
*574 FILLER_20_301
*575 FILLER_20_307
*576 FILLER_20_309
*577 FILLER_20_321
*578 FILLER_20_333
*579 FILLER_20_337
*580 FILLER_20_41
*581 FILLER_20_53
*582 FILLER_20_65
*583 FILLER_20_77
*584 FILLER_20_83
*585 FILLER_20_85
*586 FILLER_20_97
*587 FILLER_21_105
*588 FILLER_21_111
*589 FILLER_21_113
*590 FILLER_21_125
*591 FILLER_21_137
*592 FILLER_21_149
*593 FILLER_21_15
*594 FILLER_21_161
*595 FILLER_21_167
*596 FILLER_21_169
*597 FILLER_21_181
*598 FILLER_21_193
*599 FILLER_21_205
*600 FILLER_21_217
*601 FILLER_21_223
*602 FILLER_21_225
*603 FILLER_21_237
*604 FILLER_21_249
*605 FILLER_21_261
*606 FILLER_21_27
*607 FILLER_21_273
*608 FILLER_21_279
*609 FILLER_21_281
*610 FILLER_21_293
*611 FILLER_21_3
*612 FILLER_21_305
*613 FILLER_21_317
*614 FILLER_21_329
*615 FILLER_21_335
*616 FILLER_21_337
*617 FILLER_21_39
*618 FILLER_21_51
*619 FILLER_21_55
*620 FILLER_21_57
*621 FILLER_21_69
*622 FILLER_21_81
*623 FILLER_21_93
*624 FILLER_22_109
*625 FILLER_22_121
*626 FILLER_22_133
*627 FILLER_22_139
*628 FILLER_22_141
*629 FILLER_22_15
*630 FILLER_22_153
*631 FILLER_22_165
*632 FILLER_22_177
*633 FILLER_22_189
*634 FILLER_22_195
*635 FILLER_22_197
*636 FILLER_22_209
*637 FILLER_22_221
*638 FILLER_22_233
*639 FILLER_22_245
*640 FILLER_22_251
*641 FILLER_22_253
*642 FILLER_22_265
*643 FILLER_22_27
*644 FILLER_22_277
*645 FILLER_22_289
*646 FILLER_22_29
*647 FILLER_22_3
*648 FILLER_22_301
*649 FILLER_22_307
*650 FILLER_22_309
*651 FILLER_22_321
*652 FILLER_22_333
*653 FILLER_22_337
*654 FILLER_22_41
*655 FILLER_22_53
*656 FILLER_22_65
*657 FILLER_22_77
*658 FILLER_22_83
*659 FILLER_22_85
*660 FILLER_22_97
*661 FILLER_23_105
*662 FILLER_23_111
*663 FILLER_23_113
*664 FILLER_23_125
*665 FILLER_23_137
*666 FILLER_23_149
*667 FILLER_23_15
*668 FILLER_23_161
*669 FILLER_23_167
*670 FILLER_23_169
*671 FILLER_23_181
*672 FILLER_23_193
*673 FILLER_23_205
*674 FILLER_23_217
*675 FILLER_23_223
*676 FILLER_23_225
*677 FILLER_23_237
*678 FILLER_23_249
*679 FILLER_23_261
*680 FILLER_23_27
*681 FILLER_23_273
*682 FILLER_23_279
*683 FILLER_23_281
*684 FILLER_23_293
*685 FILLER_23_3
*686 FILLER_23_305
*687 FILLER_23_317
*688 FILLER_23_329
*689 FILLER_23_335
*690 FILLER_23_337
*691 FILLER_23_39
*692 FILLER_23_51
*693 FILLER_23_55
*694 FILLER_23_57
*695 FILLER_23_69
*696 FILLER_23_81
*697 FILLER_23_93
*698 FILLER_24_109
*699 FILLER_24_121
*700 FILLER_24_133
*701 FILLER_24_139
*702 FILLER_24_141
*703 FILLER_24_15
*704 FILLER_24_153
*705 FILLER_24_165
*706 FILLER_24_177
*707 FILLER_24_189
*708 FILLER_24_195
*709 FILLER_24_197
*710 FILLER_24_209
*711 FILLER_24_221
*712 FILLER_24_233
*713 FILLER_24_245
*714 FILLER_24_251
*715 FILLER_24_253
*716 FILLER_24_265
*717 FILLER_24_27
*718 FILLER_24_277
*719 FILLER_24_289
*720 FILLER_24_29
*721 FILLER_24_3
*722 FILLER_24_301
*723 FILLER_24_307
*724 FILLER_24_309
*725 FILLER_24_321
*726 FILLER_24_333
*727 FILLER_24_337
*728 FILLER_24_41
*729 FILLER_24_53
*730 FILLER_24_65
*731 FILLER_24_77
*732 FILLER_24_83
*733 FILLER_24_85
*734 FILLER_24_97
*735 FILLER_25_105
*736 FILLER_25_111
*737 FILLER_25_113
*738 FILLER_25_125
*739 FILLER_25_137
*740 FILLER_25_149
*741 FILLER_25_15
*742 FILLER_25_161
*743 FILLER_25_167
*744 FILLER_25_169
*745 FILLER_25_181
*746 FILLER_25_193
*747 FILLER_25_205
*748 FILLER_25_217
*749 FILLER_25_223
*750 FILLER_25_225
*751 FILLER_25_237
*752 FILLER_25_249
*753 FILLER_25_261
*754 FILLER_25_27
*755 FILLER_25_273
*756 FILLER_25_279
*757 FILLER_25_281
*758 FILLER_25_293
*759 FILLER_25_3
*760 FILLER_25_305
*761 FILLER_25_317
*762 FILLER_25_329
*763 FILLER_25_335
*764 FILLER_25_337
*765 FILLER_25_39
*766 FILLER_25_51
*767 FILLER_25_55
*768 FILLER_25_57
*769 FILLER_25_69
*770 FILLER_25_81
*771 FILLER_25_93
*772 FILLER_26_109
*773 FILLER_26_121
*774 FILLER_26_133
*775 FILLER_26_139
*776 FILLER_26_141
*777 FILLER_26_15
*778 FILLER_26_153
*779 FILLER_26_165
*780 FILLER_26_177
*781 FILLER_26_189
*782 FILLER_26_195
*783 FILLER_26_197
*784 FILLER_26_209
*785 FILLER_26_221
*786 FILLER_26_233
*787 FILLER_26_245
*788 FILLER_26_251
*789 FILLER_26_253
*790 FILLER_26_265
*791 FILLER_26_27
*792 FILLER_26_277
*793 FILLER_26_289
*794 FILLER_26_29
*795 FILLER_26_3
*796 FILLER_26_301
*797 FILLER_26_307
*798 FILLER_26_309
*799 FILLER_26_321
*800 FILLER_26_333
*801 FILLER_26_337
*802 FILLER_26_41
*803 FILLER_26_53
*804 FILLER_26_65
*805 FILLER_26_77
*806 FILLER_26_83
*807 FILLER_26_85
*808 FILLER_26_97
*809 FILLER_27_105
*810 FILLER_27_111
*811 FILLER_27_113
*812 FILLER_27_125
*813 FILLER_27_137
*814 FILLER_27_149
*815 FILLER_27_15
*816 FILLER_27_161
*817 FILLER_27_167
*818 FILLER_27_169
*819 FILLER_27_181
*820 FILLER_27_193
*821 FILLER_27_205
*822 FILLER_27_217
*823 FILLER_27_223
*824 FILLER_27_225
*825 FILLER_27_237
*826 FILLER_27_249
*827 FILLER_27_261
*828 FILLER_27_27
*829 FILLER_27_273
*830 FILLER_27_279
*831 FILLER_27_281
*832 FILLER_27_293
*833 FILLER_27_3
*834 FILLER_27_305
*835 FILLER_27_317
*836 FILLER_27_329
*837 FILLER_27_335
*838 FILLER_27_337
*839 FILLER_27_39
*840 FILLER_27_51
*841 FILLER_27_55
*842 FILLER_27_57
*843 FILLER_27_69
*844 FILLER_27_81
*845 FILLER_27_93
*846 FILLER_28_109
*847 FILLER_28_121
*848 FILLER_28_133
*849 FILLER_28_139
*850 FILLER_28_141
*851 FILLER_28_15
*852 FILLER_28_153
*853 FILLER_28_165
*854 FILLER_28_177
*855 FILLER_28_189
*856 FILLER_28_195
*857 FILLER_28_197
*858 FILLER_28_209
*859 FILLER_28_221
*860 FILLER_28_233
*861 FILLER_28_245
*862 FILLER_28_251
*863 FILLER_28_253
*864 FILLER_28_265
*865 FILLER_28_27
*866 FILLER_28_277
*867 FILLER_28_289
*868 FILLER_28_29
*869 FILLER_28_3
*870 FILLER_28_301
*871 FILLER_28_307
*872 FILLER_28_309
*873 FILLER_28_321
*874 FILLER_28_333
*875 FILLER_28_337
*876 FILLER_28_41
*877 FILLER_28_53
*878 FILLER_28_65
*879 FILLER_28_77
*880 FILLER_28_83
*881 FILLER_28_85
*882 FILLER_28_97
*883 FILLER_29_105
*884 FILLER_29_111
*885 FILLER_29_113
*886 FILLER_29_125
*887 FILLER_29_137
*888 FILLER_29_149
*889 FILLER_29_15
*890 FILLER_29_161
*891 FILLER_29_167
*892 FILLER_29_169
*893 FILLER_29_181
*894 FILLER_29_193
*895 FILLER_29_205
*896 FILLER_29_217
*897 FILLER_29_223
*898 FILLER_29_225
*899 FILLER_29_237
*900 FILLER_29_249
*901 FILLER_29_261
*902 FILLER_29_27
*903 FILLER_29_273
*904 FILLER_29_279
*905 FILLER_29_281
*906 FILLER_29_293
*907 FILLER_29_3
*908 FILLER_29_305
*909 FILLER_29_317
*910 FILLER_29_329
*911 FILLER_29_335
*912 FILLER_29_337
*913 FILLER_29_39
*914 FILLER_29_51
*915 FILLER_29_55
*916 FILLER_29_57
*917 FILLER_29_69
*918 FILLER_29_81
*919 FILLER_29_93
*920 FILLER_2_109
*921 FILLER_2_121
*922 FILLER_2_133
*923 FILLER_2_139
*924 FILLER_2_141
*925 FILLER_2_15
*926 FILLER_2_153
*927 FILLER_2_165
*928 FILLER_2_177
*929 FILLER_2_189
*930 FILLER_2_195
*931 FILLER_2_197
*932 FILLER_2_209
*933 FILLER_2_221
*934 FILLER_2_233
*935 FILLER_2_245
*936 FILLER_2_251
*937 FILLER_2_253
*938 FILLER_2_265
*939 FILLER_2_27
*940 FILLER_2_277
*941 FILLER_2_289
*942 FILLER_2_29
*943 FILLER_2_3
*944 FILLER_2_301
*945 FILLER_2_307
*946 FILLER_2_309
*947 FILLER_2_321
*948 FILLER_2_333
*949 FILLER_2_337
*950 FILLER_2_41
*951 FILLER_2_53
*952 FILLER_2_65
*953 FILLER_2_77
*954 FILLER_2_83
*955 FILLER_2_85
*956 FILLER_2_97
*957 FILLER_30_109
*958 FILLER_30_121
*959 FILLER_30_133
*960 FILLER_30_139
*961 FILLER_30_141
*962 FILLER_30_15
*963 FILLER_30_153
*964 FILLER_30_165
*965 FILLER_30_177
*966 FILLER_30_189
*967 FILLER_30_195
*968 FILLER_30_197
*969 FILLER_30_209
*970 FILLER_30_221
*971 FILLER_30_233
*972 FILLER_30_245
*973 FILLER_30_251
*974 FILLER_30_253
*975 FILLER_30_265
*976 FILLER_30_27
*977 FILLER_30_29
*978 FILLER_30_291
*979 FILLER_30_3
*980 FILLER_30_303
*981 FILLER_30_307
*982 FILLER_30_309
*983 FILLER_30_320
*984 FILLER_30_324
*985 FILLER_30_328
*986 FILLER_30_336
*987 FILLER_30_41
*988 FILLER_30_53
*989 FILLER_30_65
*990 FILLER_30_77
*991 FILLER_30_83
*992 FILLER_30_85
*993 FILLER_30_97
*994 FILLER_31_105
*995 FILLER_31_111
*996 FILLER_31_113
*997 FILLER_31_125
*998 FILLER_31_137
*999 FILLER_31_149
*1000 FILLER_31_15
*1001 FILLER_31_161
*1002 FILLER_31_167
*1003 FILLER_31_169
*1004 FILLER_31_181
*1005 FILLER_31_193
*1006 FILLER_31_199
*1007 FILLER_31_207
*1008 FILLER_31_219
*1009 FILLER_31_223
*1010 FILLER_31_225
*1011 FILLER_31_238
*1012 FILLER_31_242
*1013 FILLER_31_246
*1014 FILLER_31_258
*1015 FILLER_31_262
*1016 FILLER_31_27
*1017 FILLER_31_274
*1018 FILLER_31_281
*1019 FILLER_31_3
*1020 FILLER_31_307
*1021 FILLER_31_313
*1022 FILLER_31_334
*1023 FILLER_31_337
*1024 FILLER_31_39
*1025 FILLER_31_51
*1026 FILLER_31_55
*1027 FILLER_31_57
*1028 FILLER_31_69
*1029 FILLER_31_81
*1030 FILLER_31_93
*1031 FILLER_32_109
*1032 FILLER_32_116
*1033 FILLER_32_128
*1034 FILLER_32_132
*1035 FILLER_32_138
*1036 FILLER_32_141
*1037 FILLER_32_149
*1038 FILLER_32_15
*1039 FILLER_32_156
*1040 FILLER_32_165
*1041 FILLER_32_171
*1042 FILLER_32_176
*1043 FILLER_32_184
*1044 FILLER_32_197
*1045 FILLER_32_208
*1046 FILLER_32_212
*1047 FILLER_32_216
*1048 FILLER_32_224
*1049 FILLER_32_230
*1050 FILLER_32_241
*1051 FILLER_32_250
*1052 FILLER_32_253
*1053 FILLER_32_258
*1054 FILLER_32_265
*1055 FILLER_32_27
*1056 FILLER_32_273
*1057 FILLER_32_29
*1058 FILLER_32_295
*1059 FILLER_32_3
*1060 FILLER_32_306
*1061 FILLER_32_309
*1062 FILLER_32_333
*1063 FILLER_32_337
*1064 FILLER_32_41
*1065 FILLER_32_53
*1066 FILLER_32_65
*1067 FILLER_32_77
*1068 FILLER_32_83
*1069 FILLER_32_85
*1070 FILLER_32_97
*1071 FILLER_33_105
*1072 FILLER_33_11
*1073 FILLER_33_110
*1074 FILLER_33_113
*1075 FILLER_33_121
*1076 FILLER_33_126
*1077 FILLER_33_135
*1078 FILLER_33_144
*1079 FILLER_33_157
*1080 FILLER_33_166
*1081 FILLER_33_169
*1082 FILLER_33_17
*1083 FILLER_33_176
*1084 FILLER_33_182
*1085 FILLER_33_187
*1086 FILLER_33_195
*1087 FILLER_33_206
*1088 FILLER_33_219
*1089 FILLER_33_223
*1090 FILLER_33_225
*1091 FILLER_33_230
*1092 FILLER_33_238
*1093 FILLER_33_246
*1094 FILLER_33_253
*1095 FILLER_33_257
*1096 FILLER_33_278
*1097 FILLER_33_281
*1098 FILLER_33_3
*1099 FILLER_33_303
*1100 FILLER_33_33
*1101 FILLER_33_334
*1102 FILLER_33_337
*1103 FILLER_33_45
*1104 FILLER_33_53
*1105 FILLER_33_57
*1106 FILLER_33_69
*1107 FILLER_33_81
*1108 FILLER_33_93
*1109 FILLER_34_105
*1110 FILLER_34_113
*1111 FILLER_34_121
*1112 FILLER_34_129
*1113 FILLER_34_133
*1114 FILLER_34_138
*1115 FILLER_34_141
*1116 FILLER_34_15
*1117 FILLER_34_150
*1118 FILLER_34_163
*1119 FILLER_34_176
*1120 FILLER_34_183
*1121 FILLER_34_194
*1122 FILLER_34_197
*1123 FILLER_34_208
*1124 FILLER_34_221
*1125 FILLER_34_227
*1126 FILLER_34_23
*1127 FILLER_34_234
*1128 FILLER_34_245
*1129 FILLER_34_251
*1130 FILLER_34_253
*1131 FILLER_34_260
*1132 FILLER_34_267
*1133 FILLER_34_27
*1134 FILLER_34_271
*1135 FILLER_34_29
*1136 FILLER_34_293
*1137 FILLER_34_297
*1138 FILLER_34_3
*1139 FILLER_34_306
*1140 FILLER_34_309
*1141 FILLER_34_313
*1142 FILLER_34_335
*1143 FILLER_34_37
*1144 FILLER_34_45
*1145 FILLER_34_53
*1146 FILLER_34_61
*1147 FILLER_34_73
*1148 FILLER_34_81
*1149 FILLER_34_85
*1150 FILLER_34_97
*1151 FILLER_35_109
*1152 FILLER_35_113
*1153 FILLER_35_121
*1154 FILLER_35_133
*1155 FILLER_35_138
*1156 FILLER_35_141
*1157 FILLER_35_145
*1158 FILLER_35_15
*1159 FILLER_35_150
*1160 FILLER_35_158
*1161 FILLER_35_166
*1162 FILLER_35_169
*1163 FILLER_35_181
*1164 FILLER_35_189
*1165 FILLER_35_194
*1166 FILLER_35_197
*1167 FILLER_35_201
*1168 FILLER_35_211
*1169 FILLER_35_219
*1170 FILLER_35_223
*1171 FILLER_35_225
*1172 FILLER_35_230
*1173 FILLER_35_238
*1174 FILLER_35_245
*1175 FILLER_35_251
*1176 FILLER_35_253
*1177 FILLER_35_258
*1178 FILLER_35_265
*1179 FILLER_35_27
*1180 FILLER_35_272
*1181 FILLER_35_281
*1182 FILLER_35_29
*1183 FILLER_35_3
*1184 FILLER_35_303
*1185 FILLER_35_307
*1186 FILLER_35_309
*1187 FILLER_35_331
*1188 FILLER_35_335
*1189 FILLER_35_337
*1190 FILLER_35_41
*1191 FILLER_35_53
*1192 FILLER_35_57
*1193 FILLER_35_69
*1194 FILLER_35_81
*1195 FILLER_35_85
*1196 FILLER_35_97
*1197 FILLER_3_105
*1198 FILLER_3_111
*1199 FILLER_3_113
*1200 FILLER_3_125
*1201 FILLER_3_137
*1202 FILLER_3_149
*1203 FILLER_3_15
*1204 FILLER_3_161
*1205 FILLER_3_167
*1206 FILLER_3_169
*1207 FILLER_3_181
*1208 FILLER_3_193
*1209 FILLER_3_205
*1210 FILLER_3_217
*1211 FILLER_3_223
*1212 FILLER_3_225
*1213 FILLER_3_237
*1214 FILLER_3_249
*1215 FILLER_3_261
*1216 FILLER_3_27
*1217 FILLER_3_273
*1218 FILLER_3_279
*1219 FILLER_3_281
*1220 FILLER_3_293
*1221 FILLER_3_3
*1222 FILLER_3_305
*1223 FILLER_3_317
*1224 FILLER_3_329
*1225 FILLER_3_335
*1226 FILLER_3_337
*1227 FILLER_3_39
*1228 FILLER_3_51
*1229 FILLER_3_55
*1230 FILLER_3_57
*1231 FILLER_3_69
*1232 FILLER_3_81
*1233 FILLER_3_93
*1234 FILLER_4_109
*1235 FILLER_4_121
*1236 FILLER_4_133
*1237 FILLER_4_139
*1238 FILLER_4_141
*1239 FILLER_4_15
*1240 FILLER_4_153
*1241 FILLER_4_165
*1242 FILLER_4_177
*1243 FILLER_4_189
*1244 FILLER_4_195
*1245 FILLER_4_197
*1246 FILLER_4_209
*1247 FILLER_4_221
*1248 FILLER_4_233
*1249 FILLER_4_245
*1250 FILLER_4_251
*1251 FILLER_4_253
*1252 FILLER_4_265
*1253 FILLER_4_27
*1254 FILLER_4_277
*1255 FILLER_4_289
*1256 FILLER_4_29
*1257 FILLER_4_3
*1258 FILLER_4_301
*1259 FILLER_4_307
*1260 FILLER_4_309
*1261 FILLER_4_321
*1262 FILLER_4_333
*1263 FILLER_4_337
*1264 FILLER_4_41
*1265 FILLER_4_53
*1266 FILLER_4_65
*1267 FILLER_4_77
*1268 FILLER_4_83
*1269 FILLER_4_85
*1270 FILLER_4_97
*1271 FILLER_5_105
*1272 FILLER_5_111
*1273 FILLER_5_113
*1274 FILLER_5_125
*1275 FILLER_5_137
*1276 FILLER_5_149
*1277 FILLER_5_15
*1278 FILLER_5_161
*1279 FILLER_5_167
*1280 FILLER_5_169
*1281 FILLER_5_181
*1282 FILLER_5_193
*1283 FILLER_5_205
*1284 FILLER_5_217
*1285 FILLER_5_223
*1286 FILLER_5_225
*1287 FILLER_5_237
*1288 FILLER_5_249
*1289 FILLER_5_261
*1290 FILLER_5_27
*1291 FILLER_5_273
*1292 FILLER_5_279
*1293 FILLER_5_281
*1294 FILLER_5_293
*1295 FILLER_5_3
*1296 FILLER_5_305
*1297 FILLER_5_317
*1298 FILLER_5_329
*1299 FILLER_5_335
*1300 FILLER_5_337
*1301 FILLER_5_39
*1302 FILLER_5_51
*1303 FILLER_5_55
*1304 FILLER_5_57
*1305 FILLER_5_69
*1306 FILLER_5_81
*1307 FILLER_5_93
*1308 FILLER_6_109
*1309 FILLER_6_121
*1310 FILLER_6_133
*1311 FILLER_6_139
*1312 FILLER_6_141
*1313 FILLER_6_15
*1314 FILLER_6_153
*1315 FILLER_6_165
*1316 FILLER_6_177
*1317 FILLER_6_189
*1318 FILLER_6_195
*1319 FILLER_6_197
*1320 FILLER_6_209
*1321 FILLER_6_221
*1322 FILLER_6_233
*1323 FILLER_6_245
*1324 FILLER_6_251
*1325 FILLER_6_253
*1326 FILLER_6_265
*1327 FILLER_6_27
*1328 FILLER_6_277
*1329 FILLER_6_289
*1330 FILLER_6_29
*1331 FILLER_6_3
*1332 FILLER_6_301
*1333 FILLER_6_307
*1334 FILLER_6_309
*1335 FILLER_6_321
*1336 FILLER_6_333
*1337 FILLER_6_337
*1338 FILLER_6_41
*1339 FILLER_6_53
*1340 FILLER_6_65
*1341 FILLER_6_77
*1342 FILLER_6_83
*1343 FILLER_6_85
*1344 FILLER_6_97
*1345 FILLER_7_105
*1346 FILLER_7_111
*1347 FILLER_7_113
*1348 FILLER_7_125
*1349 FILLER_7_137
*1350 FILLER_7_149
*1351 FILLER_7_15
*1352 FILLER_7_161
*1353 FILLER_7_167
*1354 FILLER_7_169
*1355 FILLER_7_181
*1356 FILLER_7_193
*1357 FILLER_7_205
*1358 FILLER_7_217
*1359 FILLER_7_223
*1360 FILLER_7_225
*1361 FILLER_7_237
*1362 FILLER_7_249
*1363 FILLER_7_261
*1364 FILLER_7_27
*1365 FILLER_7_273
*1366 FILLER_7_279
*1367 FILLER_7_281
*1368 FILLER_7_293
*1369 FILLER_7_3
*1370 FILLER_7_305
*1371 FILLER_7_317
*1372 FILLER_7_329
*1373 FILLER_7_335
*1374 FILLER_7_337
*1375 FILLER_7_39
*1376 FILLER_7_51
*1377 FILLER_7_55
*1378 FILLER_7_57
*1379 FILLER_7_69
*1380 FILLER_7_81
*1381 FILLER_7_93
*1382 FILLER_8_109
*1383 FILLER_8_121
*1384 FILLER_8_133
*1385 FILLER_8_139
*1386 FILLER_8_141
*1387 FILLER_8_15
*1388 FILLER_8_153
*1389 FILLER_8_165
*1390 FILLER_8_177
*1391 FILLER_8_189
*1392 FILLER_8_195
*1393 FILLER_8_197
*1394 FILLER_8_209
*1395 FILLER_8_221
*1396 FILLER_8_233
*1397 FILLER_8_245
*1398 FILLER_8_251
*1399 FILLER_8_253
*1400 FILLER_8_265
*1401 FILLER_8_27
*1402 FILLER_8_277
*1403 FILLER_8_289
*1404 FILLER_8_29
*1405 FILLER_8_3
*1406 FILLER_8_301
*1407 FILLER_8_307
*1408 FILLER_8_309
*1409 FILLER_8_321
*1410 FILLER_8_333
*1411 FILLER_8_337
*1412 FILLER_8_41
*1413 FILLER_8_53
*1414 FILLER_8_65
*1415 FILLER_8_77
*1416 FILLER_8_83
*1417 FILLER_8_85
*1418 FILLER_8_97
*1419 FILLER_9_105
*1420 FILLER_9_111
*1421 FILLER_9_113
*1422 FILLER_9_125
*1423 FILLER_9_137
*1424 FILLER_9_149
*1425 FILLER_9_15
*1426 FILLER_9_161
*1427 FILLER_9_167
*1428 FILLER_9_169
*1429 FILLER_9_181
*1430 FILLER_9_193
*1431 FILLER_9_205
*1432 FILLER_9_217
*1433 FILLER_9_223
*1434 FILLER_9_225
*1435 FILLER_9_237
*1436 FILLER_9_249
*1437 FILLER_9_261
*1438 FILLER_9_27
*1439 FILLER_9_273
*1440 FILLER_9_279
*1441 FILLER_9_281
*1442 FILLER_9_293
*1443 FILLER_9_3
*1444 FILLER_9_305
*1445 FILLER_9_317
*1446 FILLER_9_329
*1447 FILLER_9_335
*1448 FILLER_9_337
*1449 FILLER_9_39
*1450 FILLER_9_51
*1451 FILLER_9_55
*1452 FILLER_9_57
*1453 FILLER_9_69
*1454 FILLER_9_81
*1455 FILLER_9_93
*1456 PHY_0
*1457 PHY_1
*1458 PHY_10
*1459 PHY_11
*1460 PHY_12
*1461 PHY_13
*1462 PHY_14
*1463 PHY_15
*1464 PHY_16
*1465 PHY_17
*1466 PHY_18
*1467 PHY_19
*1468 PHY_2
*1469 PHY_20
*1470 PHY_21
*1471 PHY_22
*1472 PHY_23
*1473 PHY_24
*1474 PHY_25
*1475 PHY_26
*1476 PHY_27
*1477 PHY_28
*1478 PHY_29
*1479 PHY_3
*1480 PHY_30
*1481 PHY_31
*1482 PHY_32
*1483 PHY_33
*1484 PHY_34
*1485 PHY_35
*1486 PHY_36
*1487 PHY_37
*1488 PHY_38
*1489 PHY_39
*1490 PHY_4
*1491 PHY_40
*1492 PHY_41
*1493 PHY_42
*1494 PHY_43
*1495 PHY_44
*1496 PHY_45
*1497 PHY_46
*1498 PHY_47
*1499 PHY_48
*1500 PHY_49
*1501 PHY_5
*1502 PHY_50
*1503 PHY_51
*1504 PHY_52
*1505 PHY_53
*1506 PHY_54
*1507 PHY_55
*1508 PHY_56
*1509 PHY_57
*1510 PHY_58
*1511 PHY_59
*1512 PHY_6
*1513 PHY_60
*1514 PHY_61
*1515 PHY_62
*1516 PHY_63
*1517 PHY_64
*1518 PHY_65
*1519 PHY_66
*1520 PHY_67
*1521 PHY_68
*1522 PHY_69
*1523 PHY_7
*1524 PHY_70
*1525 PHY_71
*1526 PHY_8
*1527 PHY_9
*1528 TAP_100
*1529 TAP_101
*1530 TAP_102
*1531 TAP_103
*1532 TAP_104
*1533 TAP_105
*1534 TAP_106
*1535 TAP_107
*1536 TAP_108
*1537 TAP_109
*1538 TAP_110
*1539 TAP_111
*1540 TAP_112
*1541 TAP_113
*1542 TAP_114
*1543 TAP_115
*1544 TAP_116
*1545 TAP_117
*1546 TAP_118
*1547 TAP_119
*1548 TAP_120
*1549 TAP_121
*1550 TAP_122
*1551 TAP_123
*1552 TAP_124
*1553 TAP_125
*1554 TAP_126
*1555 TAP_127
*1556 TAP_128
*1557 TAP_129
*1558 TAP_130
*1559 TAP_131
*1560 TAP_132
*1561 TAP_133
*1562 TAP_134
*1563 TAP_135
*1564 TAP_136
*1565 TAP_137
*1566 TAP_138
*1567 TAP_139
*1568 TAP_140
*1569 TAP_141
*1570 TAP_142
*1571 TAP_143
*1572 TAP_144
*1573 TAP_145
*1574 TAP_146
*1575 TAP_147
*1576 TAP_148
*1577 TAP_149
*1578 TAP_150
*1579 TAP_151
*1580 TAP_152
*1581 TAP_153
*1582 TAP_154
*1583 TAP_155
*1584 TAP_156
*1585 TAP_157
*1586 TAP_158
*1587 TAP_159
*1588 TAP_160
*1589 TAP_161
*1590 TAP_162
*1591 TAP_163
*1592 TAP_164
*1593 TAP_165
*1594 TAP_166
*1595 TAP_167
*1596 TAP_168
*1597 TAP_169
*1598 TAP_170
*1599 TAP_171
*1600 TAP_172
*1601 TAP_173
*1602 TAP_174
*1603 TAP_175
*1604 TAP_176
*1605 TAP_177
*1606 TAP_178
*1607 TAP_179
*1608 TAP_180
*1609 TAP_181
*1610 TAP_182
*1611 TAP_183
*1612 TAP_184
*1613 TAP_185
*1614 TAP_186
*1615 TAP_187
*1616 TAP_188
*1617 TAP_189
*1618 TAP_190
*1619 TAP_191
*1620 TAP_192
*1621 TAP_193
*1622 TAP_194
*1623 TAP_195
*1624 TAP_196
*1625 TAP_197
*1626 TAP_198
*1627 TAP_199
*1628 TAP_200
*1629 TAP_201
*1630 TAP_202
*1631 TAP_203
*1632 TAP_204
*1633 TAP_205
*1634 TAP_206
*1635 TAP_207
*1636 TAP_208
*1637 TAP_209
*1638 TAP_210
*1639 TAP_211
*1640 TAP_212
*1641 TAP_213
*1642 TAP_214
*1643 TAP_215
*1644 TAP_216
*1645 TAP_217
*1646 TAP_218
*1647 TAP_219
*1648 TAP_220
*1649 TAP_221
*1650 TAP_222
*1651 TAP_223
*1652 TAP_224
*1653 TAP_225
*1654 TAP_226
*1655 TAP_227
*1656 TAP_228
*1657 TAP_229
*1658 TAP_230
*1659 TAP_231
*1660 TAP_232
*1661 TAP_233
*1662 TAP_234
*1663 TAP_235
*1664 TAP_236
*1665 TAP_237
*1666 TAP_238
*1667 TAP_239
*1668 TAP_240
*1669 TAP_241
*1670 TAP_242
*1671 TAP_243
*1672 TAP_244
*1673 TAP_245
*1674 TAP_246
*1675 TAP_247
*1676 TAP_248
*1677 TAP_249
*1678 TAP_250
*1679 TAP_251
*1680 TAP_252
*1681 TAP_253
*1682 TAP_254
*1683 TAP_255
*1684 TAP_256
*1685 TAP_257