*SPEF "ieee 1481-1999"
*DESIGN "tt_um_cam"
*DATE "11:11:11 Fri 11 11, 1111"
*VENDOR "OpenRCX"
*PROGRAM "Parallel Extraction"
*VERSION "1.0"
*DESIGN_FLOW "NAME_SCOPE LOCAL" "PIN_CAP NONE"
*DIVIDER /
*DELIMITER :
*BUS_DELIMITER []
*T_UNIT 1 NS
*C_UNIT 1 PF
*R_UNIT 1 OHM
*L_UNIT 1 HENRY

*NAME_MAP
*1 clk
*2 ena
*3 rst_n
*4 ui_in[0]
*5 ui_in[1]
*6 ui_in[2]
*7 ui_in[3]
*8 ui_in[4]
*9 ui_in[5]
*10 ui_in[6]
*11 ui_in[7]
*12 uio_in[0]
*13 uio_in[1]
*14 uio_in[2]
*15 uio_in[3]
*16 uio_in[4]
*17 uio_in[5]
*18 uio_in[6]
*19 uio_in[7]
*20 net10
*21 net11
*22 net12
*23 net13
*24 net14
*25 net15
*26 net16
*27 net17
*28 uio_out[0]
*29 uio_out[1]
*30 uio_out[2]
*31 uio_out[3]
*32 uio_out[4]
*33 uio_out[5]
*34 uio_out[6]
*35 uio_out[7]
*36 uo_out[0]
*37 uo_out[1]
*38 uo_out[2]
*39 uo_out[3]
*40 uo_out[4]
*41 uo_out[5]
*42 uo_out[6]
*43 uo_out[7]
*46 _000_
*47 _001_
*48 _002_
*49 _003_
*50 _004_
*51 _005_
*52 _006_
*53 _007_
*54 _008_
*55 _009_
*56 _010_
*57 _011_
*58 _012_
*59 _013_
*60 _014_
*61 _015_
*62 _016_
*63 _017_
*64 _018_
*65 _019_
*66 _020_
*67 _021_
*68 _022_
*69 _023_
*70 _024_
*71 _025_
*72 _026_
*73 _027_
*74 _028_
*75 _029_
*76 _030_
*77 _031_
*78 _032_
*79 _033_
*80 _034_
*81 _035_
*82 _036_
*83 _037_
*84 _038_
*85 _039_
*86 _040_
*87 _041_
*88 _042_
*89 _043_
*90 _044_
*91 _045_
*92 _046_
*93 _047_
*94 _048_
*95 _049_
*96 _050_
*97 _051_
*98 _052_
*99 _053_
*100 _054_
*101 _055_
*102 _056_
*103 _057_
*104 _058_
*105 _059_
*106 _060_
*107 _061_
*108 _062_
*109 _063_
*110 _064_
*111 _065_
*112 _066_
*113 _067_
*114 _068_
*115 _069_
*116 _070_
*117 _071_
*118 _072_
*119 _073_
*120 _074_
*121 _075_
*122 _076_
*123 _077_
*124 _078_
*125 _079_
*126 _080_
*127 _081_
*128 _082_
*129 _083_
*130 _084_
*131 _085_
*132 _086_
*133 _087_
*134 _088_
*135 _089_
*136 _090_
*137 _091_
*138 _092_
*139 _093_
*140 _094_
*141 _095_
*142 _096_
*143 _097_
*144 _098_
*145 _099_
*146 _100_
*147 _101_
*148 _102_
*149 _103_
*150 _104_
*151 _105_
*152 _106_
*153 _107_
*154 _108_
*155 _109_
*156 _110_
*157 _111_
*158 _112_
*159 _113_
*160 _114_
*161 _115_
*162 _116_
*163 _117_
*164 _118_
*165 _119_
*166 _120_
*167 _121_
*168 _122_
*169 _123_
*170 _124_
*171 _125_
*172 _126_
*173 _127_
*174 _128_
*175 _129_
*176 _130_
*177 _131_
*178 _132_
*179 _133_
*180 _134_
*181 _135_
*182 _136_
*183 _137_
*184 _138_
*185 _139_
*186 _140_
*187 _141_
*188 _142_
*189 _143_
*190 _144_
*191 _145_
*192 _146_
*193 _147_
*194 _148_
*195 _149_
*196 _150_
*197 _151_
*198 _152_
*199 _153_
*200 _154_
*201 _155_
*202 _156_
*203 _157_
*204 _158_
*205 _159_
*206 _160_
*207 _161_
*208 _162_
*209 _163_
*210 _164_
*211 _165_
*212 _166_
*213 _167_
*214 _168_
*215 _169_
*216 _170_
*217 _171_
*218 _172_
*219 _173_
*220 _174_
*221 _175_
*222 _176_
*223 _177_
*224 _178_
*225 _179_
*226 _180_
*227 _181_
*228 _182_
*229 _183_
*230 _184_
*231 _185_
*232 _186_
*233 _187_
*234 _188_
*235 _189_
*236 _190_
*237 _191_
*238 _192_
*239 _193_
*240 _194_
*241 _195_
*242 _196_
*243 _197_
*244 _198_
*245 _199_
*246 _200_
*247 _201_
*248 _202_
*249 _203_
*250 _204_
*251 _205_
*252 _206_
*253 _207_
*254 _208_
*255 _209_
*256 _210_
*257 _211_
*258 _212_
*259 _213_
*260 _214_
*261 _215_
*262 _216_
*263 _217_
*264 _218_
*265 _219_
*266 _220_
*267 _221_
*268 _222_
*269 _223_
*270 _224_
*271 _225_
*272 _226_
*273 _227_
*274 _228_
*275 _229_
*276 _230_
*277 _231_
*278 _232_
*279 _233_
*280 _234_
*281 _235_
*282 _236_
*283 _237_
*284 _238_
*285 _239_
*286 _240_
*287 _241_
*288 _242_
*289 _243_
*290 _244_
*291 _245_
*292 _246_
*293 _247_
*294 _248_
*295 _249_
*296 _250_
*297 _251_
*298 _252_
*299 _253_
*300 _254_
*301 _255_
*302 _256_
*303 _257_
*304 _258_
*305 _259_
*306 _260_
*307 _261_
*308 _262_
*309 _263_
*310 _264_
*311 _265_
*312 _266_
*313 _267_
*314 _268_
*315 _269_
*316 _270_
*317 _271_
*318 _272_
*319 _273_
*320 _274_
*321 _275_
*322 _276_
*323 _277_
*324 _278_
*325 _279_
*326 _280_
*327 _281_
*328 _282_
*329 _283_
*330 _284_
*331 _285_
*332 _286_
*333 _287_
*334 _288_
*335 _289_
*336 _290_
*337 _291_
*338 _292_
*339 _293_
*340 _294_
*341 _295_
*342 _296_
*343 _297_
*344 _298_
*345 _299_
*346 _300_
*347 _301_
*348 _302_
*349 _303_
*350 _304_
*351 _305_
*352 _306_
*353 _307_
*354 _308_
*355 _309_
*356 _310_
*357 _311_
*358 _312_
*359 _313_
*360 _314_
*361 _315_
*362 _316_
*363 _317_
*364 _318_
*365 _319_
*366 _320_
*367 _321_
*368 _322_
*369 _323_
*370 _324_
*371 _325_
*372 _326_
*373 _327_
*374 _328_
*375 _329_
*376 _330_
*377 _331_
*378 _332_
*379 _333_
*380 _334_
*381 _335_
*382 _336_
*383 _337_
*384 _338_
*385 _339_
*386 _340_
*387 _341_
*388 _342_
*389 _343_
*390 _344_
*391 _345_
*392 _346_
*393 _347_
*394 _348_
*395 _349_
*396 _350_
*397 _351_
*398 _352_
*399 _353_
*400 _354_
*401 _355_
*402 _356_
*403 _357_
*404 _358_
*405 _359_
*406 _360_
*407 _361_
*408 _362_
*409 _363_
*410 _364_
*411 _365_
*412 _366_
*413 _367_
*414 _368_
*415 _369_
*416 _370_
*417 _371_
*418 _372_
*419 _373_
*420 _374_
*421 _375_
*422 _376_
*423 _377_
*424 _378_
*425 _379_
*426 _380_
*427 _381_
*428 _382_
*429 _383_
*430 _384_
*431 _385_
*432 _386_
*433 _387_
*434 _388_
*435 _389_
*436 _390_
*437 _391_
*438 _392_
*439 _393_
*440 _394_
*441 _395_
*442 _396_
*443 _397_
*444 _398_
*445 _399_
*446 _400_
*447 _401_
*448 _402_
*449 _403_
*450 _404_
*451 _405_
*452 _406_
*453 _407_
*454 _408_
*455 _409_
*456 _410_
*457 _411_
*458 _412_
*459 _413_
*460 _414_
*461 _415_
*462 _416_
*463 _417_
*464 _418_
*465 _419_
*466 _420_
*467 _421_
*468 _422_
*469 _423_
*470 cam0\.current_address\[0\]
*471 cam0\.current_address\[1\]
*472 cam0\.current_address\[2\]
*473 cam0\.current_address\[3\]
*474 cam0\.data\[0\]\[0\]
*475 cam0\.data\[0\]\[1\]
*476 cam0\.data\[0\]\[2\]
*477 cam0\.data\[0\]\[3\]
*478 cam0\.data\[0\]\[4\]
*479 cam0\.data\[0\]\[5\]
*480 cam0\.data\[0\]\[6\]
*481 cam0\.data\[10\]\[0\]
*482 cam0\.data\[10\]\[1\]
*483 cam0\.data\[10\]\[2\]
*484 cam0\.data\[10\]\[3\]
*485 cam0\.data\[10\]\[4\]
*486 cam0\.data\[10\]\[5\]
*487 cam0\.data\[10\]\[6\]
*488 cam0\.data\[11\]\[0\]
*489 cam0\.data\[11\]\[1\]
*490 cam0\.data\[11\]\[2\]
*491 cam0\.data\[11\]\[3\]
*492 cam0\.data\[11\]\[4\]
*493 cam0\.data\[11\]\[5\]
*494 cam0\.data\[11\]\[6\]
*495 cam0\.data\[12\]\[0\]
*496 cam0\.data\[12\]\[1\]
*497 cam0\.data\[12\]\[2\]
*498 cam0\.data\[12\]\[3\]
*499 cam0\.data\[12\]\[4\]
*500 cam0\.data\[12\]\[5\]
*501 cam0\.data\[12\]\[6\]
*502 cam0\.data\[13\]\[0\]
*503 cam0\.data\[13\]\[1\]
*504 cam0\.data\[13\]\[2\]
*505 cam0\.data\[13\]\[3\]
*506 cam0\.data\[13\]\[4\]
*507 cam0\.data\[13\]\[5\]
*508 cam0\.data\[13\]\[6\]
*509 cam0\.data\[14\]\[0\]
*510 cam0\.data\[14\]\[1\]
*511 cam0\.data\[14\]\[2\]
*512 cam0\.data\[14\]\[3\]
*513 cam0\.data\[14\]\[4\]
*514 cam0\.data\[14\]\[5\]
*515 cam0\.data\[14\]\[6\]
*516 cam0\.data\[15\]\[0\]
*517 cam0\.data\[15\]\[1\]
*518 cam0\.data\[15\]\[2\]
*519 cam0\.data\[15\]\[3\]
*520 cam0\.data\[15\]\[4\]
*521 cam0\.data\[15\]\[5\]
*522 cam0\.data\[15\]\[6\]
*523 cam0\.data\[1\]\[0\]
*524 cam0\.data\[1\]\[1\]
*525 cam0\.data\[1\]\[2\]
*526 cam0\.data\[1\]\[3\]
*527 cam0\.data\[1\]\[4\]
*528 cam0\.data\[1\]\[5\]
*529 cam0\.data\[1\]\[6\]
*530 cam0\.data\[2\]\[0\]
*531 cam0\.data\[2\]\[1\]
*532 cam0\.data\[2\]\[2\]
*533 cam0\.data\[2\]\[3\]
*534 cam0\.data\[2\]\[4\]
*535 cam0\.data\[2\]\[5\]
*536 cam0\.data\[2\]\[6\]
*537 cam0\.data\[3\]\[0\]
*538 cam0\.data\[3\]\[1\]
*539 cam0\.data\[3\]\[2\]
*540 cam0\.data\[3\]\[3\]
*541 cam0\.data\[3\]\[4\]
*542 cam0\.data\[3\]\[5\]
*543 cam0\.data\[3\]\[6\]
*544 cam0\.data\[4\]\[0\]
*545 cam0\.data\[4\]\[1\]
*546 cam0\.data\[4\]\[2\]
*547 cam0\.data\[4\]\[3\]
*548 cam0\.data\[4\]\[4\]
*549 cam0\.data\[4\]\[5\]
*550 cam0\.data\[4\]\[6\]
*551 cam0\.data\[5\]\[0\]
*552 cam0\.data\[5\]\[1\]
*553 cam0\.data\[5\]\[2\]
*554 cam0\.data\[5\]\[3\]
*555 cam0\.data\[5\]\[4\]
*556 cam0\.data\[5\]\[5\]
*557 cam0\.data\[5\]\[6\]
*558 cam0\.data\[6\]\[0\]
*559 cam0\.data\[6\]\[1\]
*560 cam0\.data\[6\]\[2\]
*561 cam0\.data\[6\]\[3\]
*562 cam0\.data\[6\]\[4\]
*563 cam0\.data\[6\]\[5\]
*564 cam0\.data\[6\]\[6\]
*565 cam0\.data\[7\]\[0\]
*566 cam0\.data\[7\]\[1\]
*567 cam0\.data\[7\]\[2\]
*568 cam0\.data\[7\]\[3\]
*569 cam0\.data\[7\]\[4\]
*570 cam0\.data\[7\]\[5\]
*571 cam0\.data\[7\]\[6\]
*572 cam0\.data\[8\]\[0\]
*573 cam0\.data\[8\]\[1\]
*574 cam0\.data\[8\]\[2\]
*575 cam0\.data\[8\]\[3\]
*576 cam0\.data\[8\]\[4\]
*577 cam0\.data\[8\]\[5\]
*578 cam0\.data\[8\]\[6\]
*579 cam0\.data\[9\]\[0\]
*580 cam0\.data\[9\]\[1\]
*581 cam0\.data\[9\]\[2\]
*582 cam0\.data\[9\]\[3\]
*583 cam0\.data\[9\]\[4\]
*584 cam0\.data\[9\]\[5\]
*585 cam0\.data\[9\]\[6\]
*586 clknet_0_clk
*587 clknet_4_0_0_clk
*588 clknet_4_10_0_clk
*589 clknet_4_11_0_clk
*590 clknet_4_12_0_clk
*591 clknet_4_13_0_clk
*592 clknet_4_14_0_clk
*593 clknet_4_15_0_clk
*594 clknet_4_1_0_clk
*595 clknet_4_2_0_clk
*596 clknet_4_3_0_clk
*597 clknet_4_4_0_clk
*598 clknet_4_5_0_clk
*599 clknet_4_6_0_clk
*600 clknet_4_7_0_clk
*601 clknet_4_8_0_clk
*602 clknet_4_9_0_clk
*603 net1
*604 net2
*605 net3
*606 net4
*607 net5
*608 net6
*609 net7
*610 net8
*611 net9
*612 FILLER_0_109
*613 FILLER_0_113
*614 FILLER_0_125
*615 FILLER_0_137
*616 FILLER_0_141
*617 FILLER_0_15
*618 FILLER_0_153
*619 FILLER_0_165
*620 FILLER_0_169
*621 FILLER_0_181
*622 FILLER_0_193
*623 FILLER_0_197
*624 FILLER_0_209
*625 FILLER_0_221
*626 FILLER_0_225
*627 FILLER_0_237
*628 FILLER_0_249
*629 FILLER_0_253
*630 FILLER_0_265
*631 FILLER_0_27
*632 FILLER_0_277
*633 FILLER_0_281
*634 FILLER_0_29
*635 FILLER_0_293
*636 FILLER_0_3
*637 FILLER_0_305
*638 FILLER_0_309
*639 FILLER_0_321
*640 FILLER_0_333
*641 FILLER_0_337
*642 FILLER_0_41
*643 FILLER_0_53
*644 FILLER_0_57
*645 FILLER_0_69
*646 FILLER_0_81
*647 FILLER_0_85
*648 FILLER_0_97
*649 FILLER_10_103
*650 FILLER_10_114
*651 FILLER_10_125
*652 FILLER_10_137
*653 FILLER_10_141
*654 FILLER_10_15
*655 FILLER_10_159
*656 FILLER_10_171
*657 FILLER_10_188
*658 FILLER_10_197
*659 FILLER_10_206
*660 FILLER_10_214
*661 FILLER_10_233
*662 FILLER_10_239
*663 FILLER_10_246
*664 FILLER_10_253
*665 FILLER_10_26
*666 FILLER_10_271
*667 FILLER_10_283
*668 FILLER_10_288
*669 FILLER_10_29
*670 FILLER_10_296
*671 FILLER_10_3
*672 FILLER_10_306
*673 FILLER_10_309
*674 FILLER_10_33
*675 FILLER_10_333
*676 FILLER_10_337
*677 FILLER_10_41
*678 FILLER_10_47
*679 FILLER_10_64
*680 FILLER_10_76
*681 FILLER_10_85
*682 FILLER_11_104
*683 FILLER_11_113
*684 FILLER_11_131
*685 FILLER_11_137
*686 FILLER_11_15
*687 FILLER_11_154
*688 FILLER_11_166
*689 FILLER_11_169
*690 FILLER_11_193
*691 FILLER_11_217
*692 FILLER_11_223
*693 FILLER_11_225
*694 FILLER_11_231
*695 FILLER_11_239
*696 FILLER_11_259
*697 FILLER_11_27
*698 FILLER_11_271
*699 FILLER_11_278
*700 FILLER_11_281
*701 FILLER_11_290
*702 FILLER_11_3
*703 FILLER_11_302
*704 FILLER_11_310
*705 FILLER_11_314
*706 FILLER_11_331
*707 FILLER_11_335
*708 FILLER_11_337
*709 FILLER_11_35
*710 FILLER_11_54
*711 FILLER_11_57
*712 FILLER_11_61
*713 FILLER_11_78
*714 FILLER_11_86
*715 FILLER_12_101
*716 FILLER_12_11
*717 FILLER_12_118
*718 FILLER_12_138
*719 FILLER_12_141
*720 FILLER_12_169
*721 FILLER_12_18
*722 FILLER_12_180
*723 FILLER_12_187
*724 FILLER_12_195
*725 FILLER_12_197
*726 FILLER_12_215
*727 FILLER_12_226
*728 FILLER_12_238
*729 FILLER_12_250
*730 FILLER_12_253
*731 FILLER_12_26
*732 FILLER_12_262
*733 FILLER_12_268
*734 FILLER_12_285
*735 FILLER_12_289
*736 FILLER_12_29
*737 FILLER_12_297
*738 FILLER_12_3
*739 FILLER_12_305
*740 FILLER_12_309
*741 FILLER_12_327
*742 FILLER_12_33
*743 FILLER_12_335
*744 FILLER_12_50
*745 FILLER_12_70
*746 FILLER_12_82
*747 FILLER_12_85
*748 FILLER_12_97
*749 FILLER_13_101
*750 FILLER_13_109
*751 FILLER_13_113
*752 FILLER_13_122
*753 FILLER_13_129
*754 FILLER_13_141
*755 FILLER_13_15
*756 FILLER_13_153
*757 FILLER_13_161
*758 FILLER_13_166
*759 FILLER_13_169
*760 FILLER_13_178
*761 FILLER_13_186
*762 FILLER_13_195
*763 FILLER_13_207
*764 FILLER_13_222
*765 FILLER_13_225
*766 FILLER_13_243
*767 FILLER_13_250
*768 FILLER_13_27
*769 FILLER_13_278
*770 FILLER_13_281
*771 FILLER_13_288
*772 FILLER_13_3
*773 FILLER_13_308
*774 FILLER_13_332
*775 FILLER_13_337
*776 FILLER_13_35
*777 FILLER_13_54
*778 FILLER_13_57
*779 FILLER_13_69
*780 FILLER_13_81
*781 FILLER_13_93
*782 FILLER_14_103
*783 FILLER_14_116
*784 FILLER_14_120
*785 FILLER_14_138
*786 FILLER_14_141
*787 FILLER_14_149
*788 FILLER_14_16
*789 FILLER_14_167
*790 FILLER_14_174
*791 FILLER_14_185
*792 FILLER_14_193
*793 FILLER_14_197
*794 FILLER_14_209
*795 FILLER_14_231
*796 FILLER_14_250
*797 FILLER_14_253
*798 FILLER_14_260
*799 FILLER_14_271
*800 FILLER_14_277
*801 FILLER_14_285
*802 FILLER_14_29
*803 FILLER_14_295
*804 FILLER_14_3
*805 FILLER_14_306
*806 FILLER_14_309
*807 FILLER_14_318
*808 FILLER_14_330
*809 FILLER_14_37
*810 FILLER_14_55
*811 FILLER_14_67
*812 FILLER_14_82
*813 FILLER_14_85
*814 FILLER_15_110
*815 FILLER_15_113
*816 FILLER_15_122
*817 FILLER_15_126
*818 FILLER_15_130
*819 FILLER_15_151
*820 FILLER_15_166
*821 FILLER_15_169
*822 FILLER_15_180
*823 FILLER_15_19
*824 FILLER_15_195
*825 FILLER_15_206
*826 FILLER_15_210
*827 FILLER_15_214
*828 FILLER_15_222
*829 FILLER_15_225
*830 FILLER_15_236
*831 FILLER_15_256
*832 FILLER_15_264
*833 FILLER_15_272
*834 FILLER_15_281
*835 FILLER_15_291
*836 FILLER_15_3
*837 FILLER_15_302
*838 FILLER_15_313
*839 FILLER_15_333
*840 FILLER_15_337
*841 FILLER_15_34
*842 FILLER_15_54
*843 FILLER_15_57
*844 FILLER_15_68
*845 FILLER_15_8
*846 FILLER_15_90
*847 FILLER_16_104
*848 FILLER_16_11
*849 FILLER_16_121
*850 FILLER_16_131
*851 FILLER_16_138
*852 FILLER_16_141
*853 FILLER_16_148
*854 FILLER_16_163
*855 FILLER_16_18
*856 FILLER_16_183
*857 FILLER_16_195
*858 FILLER_16_197
*859 FILLER_16_215
*860 FILLER_16_22
*861 FILLER_16_225
*862 FILLER_16_229
*863 FILLER_16_241
*864 FILLER_16_249
*865 FILLER_16_253
*866 FILLER_16_26
*867 FILLER_16_264
*868 FILLER_16_268
*869 FILLER_16_285
*870 FILLER_16_29
*871 FILLER_16_3
*872 FILLER_16_305
*873 FILLER_16_309
*874 FILLER_16_327
*875 FILLER_16_335
*876 FILLER_16_38
*877 FILLER_16_60
*878 FILLER_16_73
*879 FILLER_16_82
*880 FILLER_16_85
*881 FILLER_16_98
*882 FILLER_17_110
*883 FILLER_17_113
*884 FILLER_17_117
*885 FILLER_17_129
*886 FILLER_17_142
*887 FILLER_17_157
*888 FILLER_17_16
*889 FILLER_17_165
*890 FILLER_17_169
*891 FILLER_17_178
*892 FILLER_17_191
*893 FILLER_17_202
*894 FILLER_17_222
*895 FILLER_17_225
*896 FILLER_17_238
*897 FILLER_17_245
*898 FILLER_17_258
*899 FILLER_17_266
*900 FILLER_17_274
*901 FILLER_17_281
*902 FILLER_17_285
*903 FILLER_17_297
*904 FILLER_17_3
*905 FILLER_17_30
*906 FILLER_17_309
*907 FILLER_17_326
*908 FILLER_17_334
*909 FILLER_17_337
*910 FILLER_17_54
*911 FILLER_17_57
*912 FILLER_17_65
*913 FILLER_17_74
*914 FILLER_17_78
*915 FILLER_17_82
*916 FILLER_17_97
*917 FILLER_18_113
*918 FILLER_18_121
*919 FILLER_18_128
*920 FILLER_18_138
*921 FILLER_18_141
*922 FILLER_18_15
*923 FILLER_18_159
*924 FILLER_18_167
*925 FILLER_18_184
*926 FILLER_18_192
*927 FILLER_18_197
*928 FILLER_18_207
*929 FILLER_18_227
*930 FILLER_18_235
*931 FILLER_18_239
*932 FILLER_18_247
*933 FILLER_18_251
*934 FILLER_18_253
*935 FILLER_18_26
*936 FILLER_18_260
*937 FILLER_18_268
*938 FILLER_18_279
*939 FILLER_18_29
*940 FILLER_18_296
*941 FILLER_18_3
*942 FILLER_18_309
*943 FILLER_18_327
*944 FILLER_18_335
*945 FILLER_18_38
*946 FILLER_18_46
*947 FILLER_18_54
*948 FILLER_18_66
*949 FILLER_18_81
*950 FILLER_18_85
*951 FILLER_18_92
*952 FILLER_19_103
*953 FILLER_19_110
*954 FILLER_19_113
*955 FILLER_19_119
*956 FILLER_19_136
*957 FILLER_19_149
*958 FILLER_19_15
*959 FILLER_19_160
*960 FILLER_19_169
*961 FILLER_19_181
*962 FILLER_19_189
*963 FILLER_19_199
*964 FILLER_19_211
*965 FILLER_19_222
*966 FILLER_19_225
*967 FILLER_19_249
*968 FILLER_19_25
*969 FILLER_19_261
*970 FILLER_19_270
*971 FILLER_19_278
*972 FILLER_19_281
*973 FILLER_19_285
*974 FILLER_19_293
*975 FILLER_19_3
*976 FILLER_19_304
*977 FILLER_19_324
*978 FILLER_19_337
*979 FILLER_19_35
*980 FILLER_19_47
*981 FILLER_19_55
*982 FILLER_19_57
*983 FILLER_19_76
*984 FILLER_19_82
*985 FILLER_19_99
*986 FILLER_1_105
*987 FILLER_1_111
*988 FILLER_1_113
*989 FILLER_1_125
*990 FILLER_1_137
*991 FILLER_1_149
*992 FILLER_1_15
*993 FILLER_1_161
*994 FILLER_1_167
*995 FILLER_1_169
*996 FILLER_1_181
*997 FILLER_1_193
*998 FILLER_1_205
*999 FILLER_1_217
*1000 FILLER_1_223
*1001 FILLER_1_225
*1002 FILLER_1_237
*1003 FILLER_1_249
*1004 FILLER_1_261
*1005 FILLER_1_27
*1006 FILLER_1_273
*1007 FILLER_1_279
*1008 FILLER_1_281
*1009 FILLER_1_293
*1010 FILLER_1_3
*1011 FILLER_1_305
*1012 FILLER_1_317
*1013 FILLER_1_329
*1014 FILLER_1_335
*1015 FILLER_1_337
*1016 FILLER_1_39
*1017 FILLER_1_51
*1018 FILLER_1_55
*1019 FILLER_1_57
*1020 FILLER_1_69
*1021 FILLER_1_81
*1022 FILLER_1_93
*1023 FILLER_20_103
*1024 FILLER_20_117
*1025 FILLER_20_127
*1026 FILLER_20_138
*1027 FILLER_20_141
*1028 FILLER_20_15
*1029 FILLER_20_156
*1030 FILLER_20_164
*1031 FILLER_20_171
*1032 FILLER_20_193
*1033 FILLER_20_197
*1034 FILLER_20_208
*1035 FILLER_20_215
*1036 FILLER_20_226
*1037 FILLER_20_237
*1038 FILLER_20_245
*1039 FILLER_20_251
*1040 FILLER_20_253
*1041 FILLER_20_26
*1042 FILLER_20_263
*1043 FILLER_20_267
*1044 FILLER_20_274
*1045 FILLER_20_286
*1046 FILLER_20_29
*1047 FILLER_20_294
*1048 FILLER_20_3
*1049 FILLER_20_304
*1050 FILLER_20_309
*1051 FILLER_20_327
*1052 FILLER_20_335
*1053 FILLER_20_35
*1054 FILLER_20_43
*1055 FILLER_20_63
*1056 FILLER_20_75
*1057 FILLER_20_82
*1058 FILLER_20_85
*1059 FILLER_21_103
*1060 FILLER_21_110
*1061 FILLER_21_113
*1062 FILLER_21_121
*1063 FILLER_21_131
*1064 FILLER_21_135
*1065 FILLER_21_14
*1066 FILLER_21_142
*1067 FILLER_21_153
*1068 FILLER_21_159
*1069 FILLER_21_166
*1070 FILLER_21_169
*1071 FILLER_21_175
*1072 FILLER_21_186
*1073 FILLER_21_195
*1074 FILLER_21_206
*1075 FILLER_21_217
*1076 FILLER_21_223
*1077 FILLER_21_225
*1078 FILLER_21_234
*1079 FILLER_21_245
*1080 FILLER_21_254
*1081 FILLER_21_26
*1082 FILLER_21_266
*1083 FILLER_21_270
*1084 FILLER_21_277
*1085 FILLER_21_281
*1086 FILLER_21_290
*1087 FILLER_21_294
*1088 FILLER_21_3
*1089 FILLER_21_302
*1090 FILLER_21_324
*1091 FILLER_21_330
*1092 FILLER_21_334
*1093 FILLER_21_337
*1094 FILLER_21_37
*1095 FILLER_21_45
*1096 FILLER_21_54
*1097 FILLER_21_57
*1098 FILLER_21_75
*1099 FILLER_21_81
*1100 FILLER_21_89
*1101 FILLER_21_99
*1102 FILLER_22_108
*1103 FILLER_22_122
*1104 FILLER_22_132
*1105 FILLER_22_141
*1106 FILLER_22_16
*1107 FILLER_22_160
*1108 FILLER_22_172
*1109 FILLER_22_190
*1110 FILLER_22_197
*1111 FILLER_22_215
*1112 FILLER_22_232
*1113 FILLER_22_247
*1114 FILLER_22_251
*1115 FILLER_22_253
*1116 FILLER_22_26
*1117 FILLER_22_262
*1118 FILLER_22_273
*1119 FILLER_22_284
*1120 FILLER_22_29
*1121 FILLER_22_291
*1122 FILLER_22_3
*1123 FILLER_22_306
*1124 FILLER_22_309
*1125 FILLER_22_327
*1126 FILLER_22_334
*1127 FILLER_22_39
*1128 FILLER_22_59
*1129 FILLER_22_71
*1130 FILLER_22_75
*1131 FILLER_22_82
*1132 FILLER_22_85
*1133 FILLER_22_94
*1134 FILLER_23_11
*1135 FILLER_23_110
*1136 FILLER_23_113
*1137 FILLER_23_123
*1138 FILLER_23_143
*1139 FILLER_23_151
*1140 FILLER_23_162
*1141 FILLER_23_169
*1142 FILLER_23_178
*1143 FILLER_23_19
*1144 FILLER_23_204
*1145 FILLER_23_212
*1146 FILLER_23_221
*1147 FILLER_23_225
*1148 FILLER_23_231
*1149 FILLER_23_235
*1150 FILLER_23_243
*1151 FILLER_23_254
*1152 FILLER_23_26
*1153 FILLER_23_264
*1154 FILLER_23_272
*1155 FILLER_23_281
*1156 FILLER_23_298
*1157 FILLER_23_3
*1158 FILLER_23_309
*1159 FILLER_23_333
*1160 FILLER_23_337
*1161 FILLER_23_38
*1162 FILLER_23_43
*1163 FILLER_23_54
*1164 FILLER_23_57
*1165 FILLER_23_69
*1166 FILLER_23_73
*1167 FILLER_23_80
*1168 FILLER_23_90
*1169 FILLER_24_111
*1170 FILLER_24_12
*1171 FILLER_24_122
*1172 FILLER_24_130
*1173 FILLER_24_138
*1174 FILLER_24_141
*1175 FILLER_24_150
*1176 FILLER_24_164
*1177 FILLER_24_172
*1178 FILLER_24_184
*1179 FILLER_24_197
*1180 FILLER_24_203
*1181 FILLER_24_208
*1182 FILLER_24_226
*1183 FILLER_24_24
*1184 FILLER_24_250
*1185 FILLER_24_253
*1186 FILLER_24_262
*1187 FILLER_24_269
*1188 FILLER_24_273
*1189 FILLER_24_279
*1190 FILLER_24_285
*1191 FILLER_24_29
*1192 FILLER_24_293
*1193 FILLER_24_3
*1194 FILLER_24_304
*1195 FILLER_24_309
*1196 FILLER_24_327
*1197 FILLER_24_331
*1198 FILLER_24_335
*1199 FILLER_24_37
*1200 FILLER_24_45
*1201 FILLER_24_65
*1202 FILLER_24_73
*1203 FILLER_24_82
*1204 FILLER_24_85
*1205 FILLER_24_98
*1206 FILLER_25_105
*1207 FILLER_25_111
*1208 FILLER_25_113
*1209 FILLER_25_12
*1210 FILLER_25_122
*1211 FILLER_25_146
*1212 FILLER_25_154
*1213 FILLER_25_164
*1214 FILLER_25_169
*1215 FILLER_25_181
*1216 FILLER_25_203
*1217 FILLER_25_211
*1218 FILLER_25_217
*1219 FILLER_25_223
*1220 FILLER_25_225
*1221 FILLER_25_232
*1222 FILLER_25_239
*1223 FILLER_25_245
*1224 FILLER_25_25
*1225 FILLER_25_262
*1226 FILLER_25_273
*1227 FILLER_25_279
*1228 FILLER_25_281
*1229 FILLER_25_292
*1230 FILLER_25_296
*1231 FILLER_25_3
*1232 FILLER_25_304
*1233 FILLER_25_324
*1234 FILLER_25_331
*1235 FILLER_25_335
*1236 FILLER_25_337
*1237 FILLER_25_34
*1238 FILLER_25_54
*1239 FILLER_25_57
*1240 FILLER_25_75
*1241 FILLER_25_85
*1242 FILLER_26_103
*1243 FILLER_26_11
*1244 FILLER_26_111
*1245 FILLER_26_120
*1246 FILLER_26_127
*1247 FILLER_26_138
*1248 FILLER_26_141
*1249 FILLER_26_154
*1250 FILLER_26_174
*1251 FILLER_26_180
*1252 FILLER_26_188
*1253 FILLER_26_19
*1254 FILLER_26_197
*1255 FILLER_26_205
*1256 FILLER_26_223
*1257 FILLER_26_242
*1258 FILLER_26_250
*1259 FILLER_26_253
*1260 FILLER_26_258
*1261 FILLER_26_26
*1262 FILLER_26_267
*1263 FILLER_26_274
*1264 FILLER_26_280
*1265 FILLER_26_29
*1266 FILLER_26_292
*1267 FILLER_26_3
*1268 FILLER_26_304
*1269 FILLER_26_309
*1270 FILLER_26_318
*1271 FILLER_26_328
*1272 FILLER_26_335
*1273 FILLER_26_37
*1274 FILLER_26_45
*1275 FILLER_26_65
*1276 FILLER_26_74
*1277 FILLER_26_82
*1278 FILLER_26_85
*1279 FILLER_27_107
*1280 FILLER_27_11
*1281 FILLER_27_111
*1282 FILLER_27_113
*1283 FILLER_27_121
*1284 FILLER_27_128
*1285 FILLER_27_148
*1286 FILLER_27_155
*1287 FILLER_27_166
*1288 FILLER_27_169
*1289 FILLER_27_184
*1290 FILLER_27_19
*1291 FILLER_27_194
*1292 FILLER_27_206
*1293 FILLER_27_214
*1294 FILLER_27_220
*1295 FILLER_27_225
*1296 FILLER_27_238
*1297 FILLER_27_248
*1298 FILLER_27_258
*1299 FILLER_27_264
*1300 FILLER_27_268
*1301 FILLER_27_278
*1302 FILLER_27_281
*1303 FILLER_27_294
*1304 FILLER_27_3
*1305 FILLER_27_30
*1306 FILLER_27_305
*1307 FILLER_27_327
*1308 FILLER_27_334
*1309 FILLER_27_337
*1310 FILLER_27_49
*1311 FILLER_27_55
*1312 FILLER_27_57
*1313 FILLER_27_66
*1314 FILLER_27_81
*1315 FILLER_27_96
*1316 FILLER_28_102
*1317 FILLER_28_11
*1318 FILLER_28_120
*1319 FILLER_28_128
*1320 FILLER_28_138
*1321 FILLER_28_141
*1322 FILLER_28_150
*1323 FILLER_28_156
*1324 FILLER_28_173
*1325 FILLER_28_183
*1326 FILLER_28_194
*1327 FILLER_28_197
*1328 FILLER_28_206
*1329 FILLER_28_214
*1330 FILLER_28_231
*1331 FILLER_28_24
*1332 FILLER_28_246
*1333 FILLER_28_253
*1334 FILLER_28_262
*1335 FILLER_28_272
*1336 FILLER_28_281
*1337 FILLER_28_29
*1338 FILLER_28_294
*1339 FILLER_28_298
*1340 FILLER_28_3
*1341 FILLER_28_306
*1342 FILLER_28_309
*1343 FILLER_28_327
*1344 FILLER_28_334
*1345 FILLER_28_44
*1346 FILLER_28_66
*1347 FILLER_28_82
*1348 FILLER_28_85
*1349 FILLER_28_94
*1350 FILLER_29_106
*1351 FILLER_29_113
*1352 FILLER_29_126
*1353 FILLER_29_138
*1354 FILLER_29_150
*1355 FILLER_29_163
*1356 FILLER_29_167
*1357 FILLER_29_169
*1358 FILLER_29_177
*1359 FILLER_29_182
*1360 FILLER_29_19
*1361 FILLER_29_202
*1362 FILLER_29_214
*1363 FILLER_29_222
*1364 FILLER_29_225
*1365 FILLER_29_243
*1366 FILLER_29_252
*1367 FILLER_29_263
*1368 FILLER_29_276
*1369 FILLER_29_281
*1370 FILLER_29_293
*1371 FILLER_29_3
*1372 FILLER_29_317
*1373 FILLER_29_32
*1374 FILLER_29_328
*1375 FILLER_29_337
*1376 FILLER_29_40
*1377 FILLER_29_49
*1378 FILLER_29_55
*1379 FILLER_29_57
*1380 FILLER_29_75
*1381 FILLER_29_95
*1382 FILLER_2_109
*1383 FILLER_2_121
*1384 FILLER_2_133
*1385 FILLER_2_139
*1386 FILLER_2_141
*1387 FILLER_2_15
*1388 FILLER_2_153
*1389 FILLER_2_165
*1390 FILLER_2_177
*1391 FILLER_2_189
*1392 FILLER_2_195
*1393 FILLER_2_197
*1394 FILLER_2_209
*1395 FILLER_2_221
*1396 FILLER_2_233
*1397 FILLER_2_245
*1398 FILLER_2_251
*1399 FILLER_2_253
*1400 FILLER_2_265
*1401 FILLER_2_27
*1402 FILLER_2_277
*1403 FILLER_2_289
*1404 FILLER_2_29
*1405 FILLER_2_3
*1406 FILLER_2_301
*1407 FILLER_2_307
*1408 FILLER_2_309
*1409 FILLER_2_321
*1410 FILLER_2_333
*1411 FILLER_2_337
*1412 FILLER_2_41
*1413 FILLER_2_53
*1414 FILLER_2_65
*1415 FILLER_2_77
*1416 FILLER_2_83
*1417 FILLER_2_85
*1418 FILLER_2_97
*1419 FILLER_30_103
*1420 FILLER_30_11
*1421 FILLER_30_111
*1422 FILLER_30_129
*1423 FILLER_30_138
*1424 FILLER_30_141
*1425 FILLER_30_145
*1426 FILLER_30_153
*1427 FILLER_30_166
*1428 FILLER_30_178
*1429 FILLER_30_186
*1430 FILLER_30_19
*1431 FILLER_30_191
*1432 FILLER_30_195
*1433 FILLER_30_197
*1434 FILLER_30_209
*1435 FILLER_30_219
*1436 FILLER_30_230
*1437 FILLER_30_240
*1438 FILLER_30_246
*1439 FILLER_30_250
*1440 FILLER_30_253
*1441 FILLER_30_26
*1442 FILLER_30_271
*1443 FILLER_30_281
*1444 FILLER_30_29
*1445 FILLER_30_291
*1446 FILLER_30_299
*1447 FILLER_30_3
*1448 FILLER_30_306
*1449 FILLER_30_309
*1450 FILLER_30_313
*1451 FILLER_30_330
*1452 FILLER_30_34
*1453 FILLER_30_47
*1454 FILLER_30_67
*1455 FILLER_30_79
*1456 FILLER_30_83
*1457 FILLER_30_85
*1458 FILLER_31_110
*1459 FILLER_31_113
*1460 FILLER_31_128
*1461 FILLER_31_140
*1462 FILLER_31_152
*1463 FILLER_31_16
*1464 FILLER_31_164
*1465 FILLER_31_169
*1466 FILLER_31_181
*1467 FILLER_31_193
*1468 FILLER_31_205
*1469 FILLER_31_213
*1470 FILLER_31_222
*1471 FILLER_31_225
*1472 FILLER_31_23
*1473 FILLER_31_234
*1474 FILLER_31_241
*1475 FILLER_31_249
*1476 FILLER_31_258
*1477 FILLER_31_270
*1478 FILLER_31_277
*1479 FILLER_31_281
*1480 FILLER_31_287
*1481 FILLER_31_294
*1482 FILLER_31_3
*1483 FILLER_31_304
*1484 FILLER_31_315
*1485 FILLER_31_325
*1486 FILLER_31_334
*1487 FILLER_31_337
*1488 FILLER_31_34
*1489 FILLER_31_54
*1490 FILLER_31_57
*1491 FILLER_31_75
*1492 FILLER_31_83
*1493 FILLER_31_88
*1494 FILLER_31_99
*1495 FILLER_32_106
*1496 FILLER_32_114
*1497 FILLER_32_127
*1498 FILLER_32_138
*1499 FILLER_32_141
*1500 FILLER_32_147
*1501 FILLER_32_169
*1502 FILLER_32_176
*1503 FILLER_32_188
*1504 FILLER_32_19
*1505 FILLER_32_197
*1506 FILLER_32_206
*1507 FILLER_32_221
*1508 FILLER_32_232
*1509 FILLER_32_240
*1510 FILLER_32_247
*1511 FILLER_32_251
*1512 FILLER_32_253
*1513 FILLER_32_261
*1514 FILLER_32_27
*1515 FILLER_32_274
*1516 FILLER_32_286
*1517 FILLER_32_29
*1518 FILLER_32_294
*1519 FILLER_32_3
*1520 FILLER_32_303
*1521 FILLER_32_307
*1522 FILLER_32_309
*1523 FILLER_32_320
*1524 FILLER_32_330
*1525 FILLER_32_38
*1526 FILLER_32_46
*1527 FILLER_32_64
*1528 FILLER_32_71
*1529 FILLER_32_82
*1530 FILLER_32_85
*1531 FILLER_32_89
*1532 FILLER_32_9
*1533 FILLER_33_102
*1534 FILLER_33_11
*1535 FILLER_33_110
*1536 FILLER_33_113
*1537 FILLER_33_130
*1538 FILLER_33_151
*1539 FILLER_33_158
*1540 FILLER_33_166
*1541 FILLER_33_169
*1542 FILLER_33_188
*1543 FILLER_33_19
*1544 FILLER_33_208
*1545 FILLER_33_219
*1546 FILLER_33_223
*1547 FILLER_33_225
*1548 FILLER_33_234
*1549 FILLER_33_242
*1550 FILLER_33_251
*1551 FILLER_33_271
*1552 FILLER_33_278
*1553 FILLER_33_281
*1554 FILLER_33_287
*1555 FILLER_33_295
*1556 FILLER_33_3
*1557 FILLER_33_30
*1558 FILLER_33_316
*1559 FILLER_33_330
*1560 FILLER_33_337
*1561 FILLER_33_36
*1562 FILLER_33_54
*1563 FILLER_33_57
*1564 FILLER_33_69
*1565 FILLER_33_94
*1566 FILLER_34_103
*1567 FILLER_34_109
*1568 FILLER_34_117
*1569 FILLER_34_138
*1570 FILLER_34_141
*1571 FILLER_34_146
*1572 FILLER_34_167
*1573 FILLER_34_17
*1574 FILLER_34_188
*1575 FILLER_34_197
*1576 FILLER_34_216
*1577 FILLER_34_222
*1578 FILLER_34_239
*1579 FILLER_34_249
*1580 FILLER_34_253
*1581 FILLER_34_26
*1582 FILLER_34_271
*1583 FILLER_34_282
*1584 FILLER_34_286
*1585 FILLER_34_29
*1586 FILLER_34_291
*1587 FILLER_34_3
*1588 FILLER_34_303
*1589 FILLER_34_307
*1590 FILLER_34_309
*1591 FILLER_34_329
*1592 FILLER_34_336
*1593 FILLER_34_47
*1594 FILLER_34_68
*1595 FILLER_34_8
*1596 FILLER_34_80
*1597 FILLER_34_85
*1598 FILLER_35_108
*1599 FILLER_35_113
*1600 FILLER_35_12
*1601 FILLER_35_122
*1602 FILLER_35_133
*1603 FILLER_35_139
*1604 FILLER_35_141
*1605 FILLER_35_146
*1606 FILLER_35_158
*1607 FILLER_35_166
*1608 FILLER_35_169
*1609 FILLER_35_174
*1610 FILLER_35_186
*1611 FILLER_35_19
*1612 FILLER_35_194
*1613 FILLER_35_197
*1614 FILLER_35_215
*1615 FILLER_35_222
*1616 FILLER_35_225
*1617 FILLER_35_234
*1618 FILLER_35_241
*1619 FILLER_35_245
*1620 FILLER_35_250
*1621 FILLER_35_253
*1622 FILLER_35_26
*1623 FILLER_35_263
*1624 FILLER_35_267
*1625 FILLER_35_278
*1626 FILLER_35_281
*1627 FILLER_35_289
*1628 FILLER_35_29
*1629 FILLER_35_299
*1630 FILLER_35_3
*1631 FILLER_35_306
*1632 FILLER_35_309
*1633 FILLER_35_331
*1634 FILLER_35_335
*1635 FILLER_35_337
*1636 FILLER_35_34
*1637 FILLER_35_54
*1638 FILLER_35_57
*1639 FILLER_35_64
*1640 FILLER_35_71
*1641 FILLER_35_83
*1642 FILLER_35_85
*1643 FILLER_35_97
*1644 FILLER_3_105
*1645 FILLER_3_111
*1646 FILLER_3_113
*1647 FILLER_3_125
*1648 FILLER_3_137
*1649 FILLER_3_149
*1650 FILLER_3_15
*1651 FILLER_3_161
*1652 FILLER_3_167
*1653 FILLER_3_169
*1654 FILLER_3_181
*1655 FILLER_3_193
*1656 FILLER_3_205
*1657 FILLER_3_217
*1658 FILLER_3_223
*1659 FILLER_3_225
*1660 FILLER_3_237
*1661 FILLER_3_249
*1662 FILLER_3_261
*1663 FILLER_3_27
*1664 FILLER_3_273
*1665 FILLER_3_279
*1666 FILLER_3_281
*1667 FILLER_3_293
*1668 FILLER_3_3
*1669 FILLER_3_305
*1670 FILLER_3_317
*1671 FILLER_3_329
*1672 FILLER_3_335
*1673 FILLER_3_337
*1674 FILLER_3_39
*1675 FILLER_3_51
*1676 FILLER_3_55
*1677 FILLER_3_57
*1678 FILLER_3_69
*1679 FILLER_3_81
*1680 FILLER_3_93
*1681 FILLER_4_109
*1682 FILLER_4_121
*1683 FILLER_4_133
*1684 FILLER_4_139
*1685 FILLER_4_141
*1686 FILLER_4_15
*1687 FILLER_4_153
*1688 FILLER_4_165
*1689 FILLER_4_177
*1690 FILLER_4_189
*1691 FILLER_4_195
*1692 FILLER_4_197
*1693 FILLER_4_209
*1694 FILLER_4_221
*1695 FILLER_4_233
*1696 FILLER_4_245
*1697 FILLER_4_251
*1698 FILLER_4_253
*1699 FILLER_4_265
*1700 FILLER_4_27
*1701 FILLER_4_277
*1702 FILLER_4_289
*1703 FILLER_4_29
*1704 FILLER_4_3
*1705 FILLER_4_301
*1706 FILLER_4_307