*SPEF "ieee 1481-1999"
*DESIGN "tt_um_urish_dffram"
*DATE "11:11:11 Fri 11 11, 1111"
*VENDOR "OpenRCX"
*PROGRAM "Parallel Extraction"
*VERSION "1.0"
*DESIGN_FLOW "NAME_SCOPE LOCAL" "PIN_CAP NONE"
*DIVIDER /
*DELIMITER :
*BUS_DELIMITER []
*T_UNIT 1 NS
*C_UNIT 1 PF
*R_UNIT 1 OHM
*L_UNIT 1 HENRY

*NAME_MAP
*1 clk
*2 ena
*3 rst_n
*4 ui_in[0]
*5 ui_in[1]
*6 ui_in[2]
*7 ui_in[3]
*8 ui_in[4]
*9 ui_in[5]
*10 ui_in[6]
*11 ui_in[7]
*12 uio_in[0]
*13 uio_in[1]
*14 uio_in[2]
*15 uio_in[3]
*16 uio_in[4]
*17 uio_in[5]
*18 uio_in[6]
*19 uio_in[7]
*20 net42
*21 net43
*22 net44
*23 net45
*24 net46
*25 net47
*26 net48
*27 net49
*28 net50
*29 net51
*30 net52
*31 net53
*32 net54
*33 net55
*34 net56
*35 net57
*36 uo_out[0]
*37 uo_out[1]
*38 uo_out[2]
*39 uo_out[3]
*40 uo_out[4]
*41 uo_out[5]
*42 uo_out[6]
*43 uo_out[7]
*46 Do0\[0\]
*47 Do0\[10\]
*48 Do0\[11\]
*49 Do0\[12\]
*50 Do0\[13\]
*51 Do0\[14\]
*52 Do0\[15\]
*53 Do0\[16\]
*54 Do0\[17\]
*55 Do0\[18\]
*56 Do0\[19\]
*57 Do0\[1\]
*58 Do0\[20\]
*59 Do0\[21\]
*60 Do0\[22\]
*61 Do0\[23\]
*62 Do0\[24\]
*63 Do0\[25\]
*64 Do0\[26\]
*65 Do0\[27\]
*66 Do0\[28\]
*67 Do0\[29\]
*68 Do0\[2\]
*69 Do0\[30\]
*70 Do0\[31\]
*71 Do0\[3\]
*72 Do0\[4\]
*73 Do0\[5\]
*74 Do0\[6\]
*75 Do0\[7\]
*76 Do0\[8\]
*77 Do0\[9\]
*78 WE0
*79 WE1
*80 WE2
*81 WE3
*82 _000_
*83 _001_
*84 _002_
*85 _003_
*86 _004_
*87 _005_
*88 _006_
*89 _007_
*90 _008_
*91 _009_
*92 _010_
*93 _011_
*94 _012_
*95 _013_
*96 net1
*97 net10
*98 net11
*99 net12
*100 net13
*101 net14
*102 net15
*103 net16
*104 net17
*105 net18
*106 net19
*107 net2
*108 net20
*109 net21
*110 net22
*111 net23
*112 net24
*113 net25
*114 net26
*115 net27
*116 net28
*117 net29
*118 net3
*119 net30
*120 net31
*121 net32
*122 net33
*123 net34
*124 net35
*125 net36
*126 net37
*127 net38
*128 net39
*129 net4
*130 net40
*131 net41
*132 net5
*133 net6
*134 net7
*135 net8
*136 net9
*137 ANTENNA_1
*138 ANTENNA_10
*139 ANTENNA_11
*140 ANTENNA_12
*141 ANTENNA_13
*142 ANTENNA_14
*143 ANTENNA_2
*144 ANTENNA_3
*145 ANTENNA_4
*146 ANTENNA_5
*147 ANTENNA_6
*148 ANTENNA_7
*149 ANTENNA_8
*150 ANTENNA_9
*151 FILLER_0_1005
*152 FILLER_0_1009
*153 FILLER_0_1021
*154 FILLER_0_1033
*155 FILLER_0_1037
*156 FILLER_0_1049
*157 FILLER_0_1061
*158 FILLER_0_1065
*159 FILLER_0_1077
*160 FILLER_0_1089
*161 FILLER_0_109
*162 FILLER_0_1093
*163 FILLER_0_1105
*164 FILLER_0_1117
*165 FILLER_0_1121
*166 FILLER_0_113
*167 FILLER_0_1133
*168 FILLER_0_1145
*169 FILLER_0_1149
*170 FILLER_0_1161
*171 FILLER_0_1173
*172 FILLER_0_1177
*173 FILLER_0_1189
*174 FILLER_0_1201
*175 FILLER_0_1205
*176 FILLER_0_1217
*177 FILLER_0_1229
*178 FILLER_0_1233
*179 FILLER_0_1245
*180 FILLER_0_125
*181 FILLER_0_1257
*182 FILLER_0_1261
*183 FILLER_0_1273
*184 FILLER_0_1285
*185 FILLER_0_1289
*186 FILLER_0_1301
*187 FILLER_0_1313
*188 FILLER_0_1317
*189 FILLER_0_1329
*190 FILLER_0_1341
*191 FILLER_0_1345
*192 FILLER_0_1357
*193 FILLER_0_1369
*194 FILLER_0_137
*195 FILLER_0_1373
*196 FILLER_0_1385
*197 FILLER_0_1397
*198 FILLER_0_1401
*199 FILLER_0_141
*200 FILLER_0_1413
*201 FILLER_0_1425
*202 FILLER_0_1429
*203 FILLER_0_1441
*204 FILLER_0_1449
*205 FILLER_0_15
*206 FILLER_0_153
*207 FILLER_0_165
*208 FILLER_0_169
*209 FILLER_0_181
*210 FILLER_0_193
*211 FILLER_0_197
*212 FILLER_0_209
*213 FILLER_0_221
*214 FILLER_0_225
*215 FILLER_0_237
*216 FILLER_0_249
*217 FILLER_0_253
*218 FILLER_0_265
*219 FILLER_0_27
*220 FILLER_0_277
*221 FILLER_0_281
*222 FILLER_0_29
*223 FILLER_0_293
*224 FILLER_0_3
*225 FILLER_0_305
*226 FILLER_0_309
*227 FILLER_0_321
*228 FILLER_0_333
*229 FILLER_0_337
*230 FILLER_0_349
*231 FILLER_0_361
*232 FILLER_0_365
*233 FILLER_0_377
*234 FILLER_0_389
*235 FILLER_0_393
*236 FILLER_0_405
*237 FILLER_0_41
*238 FILLER_0_417
*239 FILLER_0_421
*240 FILLER_0_433
*241 FILLER_0_445
*242 FILLER_0_449
*243 FILLER_0_461
*244 FILLER_0_473
*245 FILLER_0_477
*246 FILLER_0_489
*247 FILLER_0_501
*248 FILLER_0_505
*249 FILLER_0_517
*250 FILLER_0_529
*251 FILLER_0_53
*252 FILLER_0_533
*253 FILLER_0_545
*254 FILLER_0_557
*255 FILLER_0_561
*256 FILLER_0_57
*257 FILLER_0_573
*258 FILLER_0_585
*259 FILLER_0_589
*260 FILLER_0_601
*261 FILLER_0_613
*262 FILLER_0_617
*263 FILLER_0_629
*264 FILLER_0_641
*265 FILLER_0_645
*266 FILLER_0_657
*267 FILLER_0_669
*268 FILLER_0_673
*269 FILLER_0_685
*270 FILLER_0_69
*271 FILLER_0_697
*272 FILLER_0_701
*273 FILLER_0_713
*274 FILLER_0_725
*275 FILLER_0_729
*276 FILLER_0_741
*277 FILLER_0_753
*278 FILLER_0_757
*279 FILLER_0_769
*280 FILLER_0_781
*281 FILLER_0_785
*282 FILLER_0_797
*283 FILLER_0_809
*284 FILLER_0_81
*285 FILLER_0_813
*286 FILLER_0_825
*287 FILLER_0_837
*288 FILLER_0_841
*289 FILLER_0_85
*290 FILLER_0_853
*291 FILLER_0_865
*292 FILLER_0_869
*293 FILLER_0_881
*294 FILLER_0_893
*295 FILLER_0_897
*296 FILLER_0_909
*297 FILLER_0_921
*298 FILLER_0_925
*299 FILLER_0_937
*300 FILLER_0_949
*301 FILLER_0_953
*302 FILLER_0_965
*303 FILLER_0_97
*304 FILLER_0_977
*305 FILLER_0_981
*306 FILLER_0_993
*307 FILLER_10_109
*308 FILLER_10_121
*309 FILLER_10_133
*310 FILLER_10_139
*311 FILLER_10_1393
*312 FILLER_10_1405
*313 FILLER_10_141
*314 FILLER_10_1417
*315 FILLER_10_1419
*316 FILLER_10_1431
*317 FILLER_10_1443
*318 FILLER_10_15
*319 FILLER_10_153
*320 FILLER_10_165
*321 FILLER_10_177
*322 FILLER_10_189
*323 FILLER_10_195
*324 FILLER_10_197
*325 FILLER_10_209
*326 FILLER_10_221
*327 FILLER_10_233
*328 FILLER_10_245
*329 FILLER_10_251
*330 FILLER_10_253
*331 FILLER_10_265
*332 FILLER_10_27
*333 FILLER_10_277
*334 FILLER_10_289
*335 FILLER_10_29
*336 FILLER_10_3
*337 FILLER_10_301
*338 FILLER_10_307
*339 FILLER_10_309
*340 FILLER_10_321
*341 FILLER_10_333
*342 FILLER_10_345
*343 FILLER_10_357
*344 FILLER_10_363
*345 FILLER_10_365
*346 FILLER_10_377
*347 FILLER_10_389
*348 FILLER_10_401
*349 FILLER_10_41
*350 FILLER_10_413
*351 FILLER_10_419
*352 FILLER_10_421
*353 FILLER_10_433
*354 FILLER_10_445
*355 FILLER_10_457
*356 FILLER_10_469
*357 FILLER_10_53
*358 FILLER_10_65
*359 FILLER_10_77
*360 FILLER_10_83
*361 FILLER_10_85
*362 FILLER_10_97
*363 FILLER_11_105
*364 FILLER_11_111
*365 FILLER_11_113
*366 FILLER_11_125
*367 FILLER_11_137
*368 FILLER_11_1393
*369 FILLER_11_1405
*370 FILLER_11_1417
*371 FILLER_11_1429
*372 FILLER_11_1441
*373 FILLER_11_1445
*374 FILLER_11_1447
*375 FILLER_11_149
*376 FILLER_11_15
*377 FILLER_11_161
*378 FILLER_11_167
*379 FILLER_11_169
*380 FILLER_11_181
*381 FILLER_11_193
*382 FILLER_11_205
*383 FILLER_11_217
*384 FILLER_11_223
*385 FILLER_11_225
*386 FILLER_11_237
*387 FILLER_11_249
*388 FILLER_11_261
*389 FILLER_11_27
*390 FILLER_11_273
*391 FILLER_11_279
*392 FILLER_11_281
*393 FILLER_11_293
*394 FILLER_11_3
*395 FILLER_11_305
*396 FILLER_11_317
*397 FILLER_11_329
*398 FILLER_11_335
*399 FILLER_11_337
*400 FILLER_11_349
*401 FILLER_11_361
*402 FILLER_11_373
*403 FILLER_11_385
*404 FILLER_11_39
*405 FILLER_11_391
*406 FILLER_11_393
*407 FILLER_11_405
*408 FILLER_11_417
*409 FILLER_11_429
*410 FILLER_11_441
*411 FILLER_11_447
*412 FILLER_11_449
*413 FILLER_11_461
*414 FILLER_11_469
*415 FILLER_11_51
*416 FILLER_11_55
*417 FILLER_11_57
*418 FILLER_11_69
*419 FILLER_11_81
*420 FILLER_11_93
*421 FILLER_12_109
*422 FILLER_12_121
*423 FILLER_12_133
*424 FILLER_12_139
*425 FILLER_12_1393
*426 FILLER_12_1405
*427 FILLER_12_141
*428 FILLER_12_1417
*429 FILLER_12_1419
*430 FILLER_12_1431
*431 FILLER_12_1443
*432 FILLER_12_15
*433 FILLER_12_153
*434 FILLER_12_165
*435 FILLER_12_177
*436 FILLER_12_189
*437 FILLER_12_195
*438 FILLER_12_197
*439 FILLER_12_209
*440 FILLER_12_221
*441 FILLER_12_233
*442 FILLER_12_245
*443 FILLER_12_251
*444 FILLER_12_253
*445 FILLER_12_265
*446 FILLER_12_27
*447 FILLER_12_277
*448 FILLER_12_289
*449 FILLER_12_29
*450 FILLER_12_3
*451 FILLER_12_301
*452 FILLER_12_307
*453 FILLER_12_309
*454 FILLER_12_321
*455 FILLER_12_333
*456 FILLER_12_345
*457 FILLER_12_357
*458 FILLER_12_363
*459 FILLER_12_365
*460 FILLER_12_377
*461 FILLER_12_389
*462 FILLER_12_401
*463 FILLER_12_41
*464 FILLER_12_413
*465 FILLER_12_419
*466 FILLER_12_421
*467 FILLER_12_433
*468 FILLER_12_445
*469 FILLER_12_457
*470 FILLER_12_469
*471 FILLER_12_53
*472 FILLER_12_65
*473 FILLER_12_77
*474 FILLER_12_83
*475 FILLER_12_85
*476 FILLER_12_97
*477 FILLER_13_105
*478 FILLER_13_111
*479 FILLER_13_113
*480 FILLER_13_125
*481 FILLER_13_137
*482 FILLER_13_1393
*483 FILLER_13_1405
*484 FILLER_13_1417
*485 FILLER_13_1429
*486 FILLER_13_1441
*487 FILLER_13_1445
*488 FILLER_13_1447
*489 FILLER_13_149
*490 FILLER_13_15
*491 FILLER_13_161
*492 FILLER_13_167
*493 FILLER_13_169
*494 FILLER_13_181
*495 FILLER_13_193
*496 FILLER_13_205
*497 FILLER_13_217
*498 FILLER_13_223
*499 FILLER_13_225
*500 FILLER_13_237
*501 FILLER_13_249
*502 FILLER_13_261
*503 FILLER_13_27
*504 FILLER_13_273
*505 FILLER_13_279
*506 FILLER_13_281
*507 FILLER_13_293
*508 FILLER_13_3
*509 FILLER_13_305
*510 FILLER_13_317
*511 FILLER_13_329
*512 FILLER_13_335
*513 FILLER_13_337
*514 FILLER_13_349
*515 FILLER_13_361
*516 FILLER_13_373
*517 FILLER_13_385
*518 FILLER_13_39
*519 FILLER_13_391
*520 FILLER_13_393
*521 FILLER_13_405
*522 FILLER_13_417
*523 FILLER_13_429
*524 FILLER_13_441
*525 FILLER_13_447
*526 FILLER_13_449
*527 FILLER_13_461
*528 FILLER_13_469
*529 FILLER_13_51
*530 FILLER_13_55
*531 FILLER_13_57
*532 FILLER_13_69
*533 FILLER_13_81
*534 FILLER_13_93
*535 FILLER_14_109
*536 FILLER_14_121
*537 FILLER_14_133
*538 FILLER_14_139
*539 FILLER_14_1393
*540 FILLER_14_1405
*541 FILLER_14_141
*542 FILLER_14_1417
*543 FILLER_14_1419
*544 FILLER_14_1431
*545 FILLER_14_1443
*546 FILLER_14_15
*547 FILLER_14_153
*548 FILLER_14_165
*549 FILLER_14_177
*550 FILLER_14_189
*551 FILLER_14_195
*552 FILLER_14_197
*553 FILLER_14_209
*554 FILLER_14_221
*555 FILLER_14_233
*556 FILLER_14_245
*557 FILLER_14_251
*558 FILLER_14_253
*559 FILLER_14_265
*560 FILLER_14_27
*561 FILLER_14_277
*562 FILLER_14_289
*563 FILLER_14_29
*564 FILLER_14_3
*565 FILLER_14_301
*566 FILLER_14_307
*567 FILLER_14_309
*568 FILLER_14_321
*569 FILLER_14_333
*570 FILLER_14_345
*571 FILLER_14_357
*572 FILLER_14_363
*573 FILLER_14_365
*574 FILLER_14_377
*575 FILLER_14_389
*576 FILLER_14_401
*577 FILLER_14_41
*578 FILLER_14_413
*579 FILLER_14_419
*580 FILLER_14_421
*581 FILLER_14_433
*582 FILLER_14_445
*583 FILLER_14_457
*584 FILLER_14_469
*585 FILLER_14_53
*586 FILLER_14_65
*587 FILLER_14_77
*588 FILLER_14_83
*589 FILLER_14_85
*590 FILLER_14_97
*591 FILLER_15_105
*592 FILLER_15_111
*593 FILLER_15_113
*594 FILLER_15_125
*595 FILLER_15_137
*596 FILLER_15_1393
*597 FILLER_15_1405
*598 FILLER_15_1417
*599 FILLER_15_1429
*600 FILLER_15_1441
*601 FILLER_15_1445
*602 FILLER_15_1447
*603 FILLER_15_149
*604 FILLER_15_15
*605 FILLER_15_161
*606 FILLER_15_167
*607 FILLER_15_169
*608 FILLER_15_181
*609 FILLER_15_193
*610 FILLER_15_205
*611 FILLER_15_217
*612 FILLER_15_223
*613 FILLER_15_225
*614 FILLER_15_237
*615 FILLER_15_249
*616 FILLER_15_261
*617 FILLER_15_27
*618 FILLER_15_273
*619 FILLER_15_279
*620 FILLER_15_281
*621 FILLER_15_293
*622 FILLER_15_3
*623 FILLER_15_305
*624 FILLER_15_317
*625 FILLER_15_329
*626 FILLER_15_335
*627 FILLER_15_337
*628 FILLER_15_349
*629 FILLER_15_361
*630 FILLER_15_373
*631 FILLER_15_385
*632 FILLER_15_39
*633 FILLER_15_391
*634 FILLER_15_393
*635 FILLER_15_405
*636 FILLER_15_417
*637 FILLER_15_429
*638 FILLER_15_441
*639 FILLER_15_447
*640 FILLER_15_449
*641 FILLER_15_461
*642 FILLER_15_469
*643 FILLER_15_51
*644 FILLER_15_55
*645 FILLER_15_57
*646 FILLER_15_69
*647 FILLER_15_81
*648 FILLER_15_93
*649 FILLER_16_109
*650 FILLER_16_121
*651 FILLER_16_133
*652 FILLER_16_139
*653 FILLER_16_1393
*654 FILLER_16_1405
*655 FILLER_16_141
*656 FILLER_16_1417
*657 FILLER_16_1419
*658 FILLER_16_1431
*659 FILLER_16_1443
*660 FILLER_16_15
*661 FILLER_16_153
*662 FILLER_16_165
*663 FILLER_16_177
*664 FILLER_16_189
*665 FILLER_16_195
*666 FILLER_16_197
*667 FILLER_16_209
*668 FILLER_16_221
*669 FILLER_16_233
*670 FILLER_16_245
*671 FILLER_16_251
*672 FILLER_16_253
*673 FILLER_16_265
*674 FILLER_16_27
*675 FILLER_16_277
*676 FILLER_16_289
*677 FILLER_16_29
*678 FILLER_16_3
*679 FILLER_16_301
*680 FILLER_16_307
*681 FILLER_16_309
*682 FILLER_16_321
*683 FILLER_16_333
*684 FILLER_16_345
*685 FILLER_16_357
*686 FILLER_16_363
*687 FILLER_16_365
*688 FILLER_16_377
*689 FILLER_16_389
*690 FILLER_16_401
*691 FILLER_16_41
*692 FILLER_16_413
*693 FILLER_16_419
*694 FILLER_16_421
*695 FILLER_16_433
*696 FILLER_16_445
*697 FILLER_16_457
*698 FILLER_16_469
*699 FILLER_16_53
*700 FILLER_16_65
*701 FILLER_16_77
*702 FILLER_16_83
*703 FILLER_16_85
*704 FILLER_16_97
*705 FILLER_17_105
*706 FILLER_17_111
*707 FILLER_17_113
*708 FILLER_17_125
*709 FILLER_17_137
*710 FILLER_17_1393
*711 FILLER_17_1405
*712 FILLER_17_1417
*713 FILLER_17_1429
*714 FILLER_17_1441
*715 FILLER_17_1445
*716 FILLER_17_1447
*717 FILLER_17_149
*718 FILLER_17_15
*719 FILLER_17_161
*720 FILLER_17_167
*721 FILLER_17_169
*722 FILLER_17_181
*723 FILLER_17_193
*724 FILLER_17_205
*725 FILLER_17_217
*726 FILLER_17_223
*727 FILLER_17_225
*728 FILLER_17_237
*729 FILLER_17_249
*730 FILLER_17_261
*731 FILLER_17_27
*732 FILLER_17_273
*733 FILLER_17_279
*734 FILLER_17_281
*735 FILLER_17_293
*736 FILLER_17_3
*737 FILLER_17_305
*738 FILLER_17_317
*739 FILLER_17_329
*740 FILLER_17_335
*741 FILLER_17_337
*742 FILLER_17_349
*743 FILLER_17_361
*744 FILLER_17_373
*745 FILLER_17_385
*746 FILLER_17_39
*747 FILLER_17_391
*748 FILLER_17_393
*749 FILLER_17_405
*750 FILLER_17_417
*751 FILLER_17_429
*752 FILLER_17_441
*753 FILLER_17_447
*754 FILLER_17_449
*755 FILLER_17_461
*756 FILLER_17_469
*757 FILLER_17_51
*758 FILLER_17_55
*759 FILLER_17_57
*760 FILLER_17_69
*761 FILLER_17_81
*762 FILLER_17_93
*763 FILLER_18_109
*764 FILLER_18_121
*765 FILLER_18_133
*766 FILLER_18_139
*767 FILLER_18_1393
*768 FILLER_18_1405
*769 FILLER_18_141
*770 FILLER_18_1417
*771 FILLER_18_1419
*772 FILLER_18_1431
*773 FILLER_18_1443
*774 FILLER_18_15
*775 FILLER_18_153
*776 FILLER_18_165
*777 FILLER_18_177
*778 FILLER_18_189
*779 FILLER_18_195
*780 FILLER_18_197
*781 FILLER_18_209
*782 FILLER_18_221
*783 FILLER_18_233
*784 FILLER_18_245
*785 FILLER_18_251
*786 FILLER_18_253
*787 FILLER_18_265
*788 FILLER_18_27
*789 FILLER_18_277
*790 FILLER_18_289
*791 FILLER_18_29
*792 FILLER_18_3
*793 FILLER_18_301
*794 FILLER_18_307
*795 FILLER_18_309
*796 FILLER_18_321
*797 FILLER_18_333
*798 FILLER_18_345
*799 FILLER_18_357
*800 FILLER_18_363
*801 FILLER_18_365
*802 FILLER_18_377
*803 FILLER_18_389
*804 FILLER_18_401
*805 FILLER_18_41
*806 FILLER_18_413
*807 FILLER_18_419
*808 FILLER_18_421
*809 FILLER_18_433
*810 FILLER_18_445
*811 FILLER_18_457
*812 FILLER_18_469
*813 FILLER_18_53
*814 FILLER_18_65
*815 FILLER_18_77
*816 FILLER_18_83
*817 FILLER_18_85
*818 FILLER_18_97
*819 FILLER_19_105
*820 FILLER_19_111
*821 FILLER_19_113
*822 FILLER_19_125
*823 FILLER_19_137
*824 FILLER_19_1393
*825 FILLER_19_1405
*826 FILLER_19_1417
*827 FILLER_19_1429
*828 FILLER_19_1441
*829 FILLER_19_1445
*830 FILLER_19_1447
*831 FILLER_19_149
*832 FILLER_19_15
*833 FILLER_19_161
*834 FILLER_19_167
*835 FILLER_19_169
*836 FILLER_19_181
*837 FILLER_19_193
*838 FILLER_19_205
*839 FILLER_19_217
*840 FILLER_19_223
*841 FILLER_19_225
*842 FILLER_19_237
*843 FILLER_19_249
*844 FILLER_19_261
*845 FILLER_19_27
*846 FILLER_19_273
*847 FILLER_19_279
*848 FILLER_19_281
*849 FILLER_19_293
*850 FILLER_19_3
*851 FILLER_19_305
*852 FILLER_19_317
*853 FILLER_19_329
*854 FILLER_19_335
*855 FILLER_19_337
*856 FILLER_19_349
*857 FILLER_19_361
*858 FILLER_19_373
*859 FILLER_19_385
*860 FILLER_19_39
*861 FILLER_19_391
*862 FILLER_19_393
*863 FILLER_19_405
*864 FILLER_19_417
*865 FILLER_19_429
*866 FILLER_19_441
*867 FILLER_19_447
*868 FILLER_19_449
*869 FILLER_19_461
*870 FILLER_19_469
*871 FILLER_19_51
*872 FILLER_19_55
*873 FILLER_19_57
*874 FILLER_19_69
*875 FILLER_19_81
*876 FILLER_19_93
*877 FILLER_1_1001
*878 FILLER_1_1007
*879 FILLER_1_1009
*880 FILLER_1_1021
*881 FILLER_1_1033
*882 FILLER_1_1045
*883 FILLER_1_105
*884 FILLER_1_1057
*885 FILLER_1_1063
*886 FILLER_1_1065
*887 FILLER_1_1077
*888 FILLER_1_1089
*889 FILLER_1_1101
*890 FILLER_1_111
*891 FILLER_1_1113
*892 FILLER_1_1119
*893 FILLER_1_1121
*894 FILLER_1_113
*895 FILLER_1_1133
*896 FILLER_1_1145
*897 FILLER_1_1157
*898 FILLER_1_1169
*899 FILLER_1_1175
*900 FILLER_1_1177
*901 FILLER_1_1189
*902 FILLER_1_1201
*903 FILLER_1_1213
*904 FILLER_1_1225
*905 FILLER_1_1231
*906 FILLER_1_1233
*907 FILLER_1_1245
*908 FILLER_1_125
*909 FILLER_1_1257
*910 FILLER_1_1269
*911 FILLER_1_1281
*912 FILLER_1_1287
*913 FILLER_1_1289
*914 FILLER_1_1301
*915 FILLER_1_1313
*916 FILLER_1_1325
*917 FILLER_1_1337
*918 FILLER_1_1343
*919 FILLER_1_1345
*920 FILLER_1_1357
*921 FILLER_1_1369
*922 FILLER_1_137
*923 FILLER_1_1381
*924 FILLER_1_1393
*925 FILLER_1_1399
*926 FILLER_1_1401
*927 FILLER_1_1413
*928 FILLER_1_1425
*929 FILLER_1_1437
*930 FILLER_1_1449
*931 FILLER_1_149
*932 FILLER_1_15
*933 FILLER_1_161
*934 FILLER_1_167
*935 FILLER_1_169
*936 FILLER_1_181
*937 FILLER_1_193
*938 FILLER_1_205
*939 FILLER_1_217
*940 FILLER_1_223
*941 FILLER_1_225
*942 FILLER_1_237
*943 FILLER_1_249
*944 FILLER_1_261
*945 FILLER_1_27
*946 FILLER_1_273
*947 FILLER_1_279
*948 FILLER_1_281
*949 FILLER_1_293
*950 FILLER_1_3
*951 FILLER_1_305
*952 FILLER_1_317
*953 FILLER_1_329
*954 FILLER_1_335
*955 FILLER_1_337
*956 FILLER_1_349
*957 FILLER_1_361
*958 FILLER_1_373
*959 FILLER_1_385
*960 FILLER_1_39
*961 FILLER_1_391
*962 FILLER_1_393
*963 FILLER_1_405
*964 FILLER_1_417
*965 FILLER_1_429
*966 FILLER_1_441
*967 FILLER_1_447
*968 FILLER_1_449
*969 FILLER_1_461
*970 FILLER_1_473
*971 FILLER_1_485
*972 FILLER_1_497
*973 FILLER_1_503
*974 FILLER_1_505
*975 FILLER_1_51
*976 FILLER_1_517
*977 FILLER_1_529
*978 FILLER_1_541
*979 FILLER_1_55
*980 FILLER_1_553
*981 FILLER_1_559
*982 FILLER_1_561
*983 FILLER_1_57
*984 FILLER_1_573
*985 FILLER_1_585
*986 FILLER_1_597
*987 FILLER_1_609
*988 FILLER_1_615
*989 FILLER_1_617
*990 FILLER_1_629
*991 FILLER_1_641
*992 FILLER_1_653
*993 FILLER_1_665
*994 FILLER_1_671
*995 FILLER_1_673
*996 FILLER_1_685
*997 FILLER_1_69
*998 FILLER_1_697
*999 FILLER_1_709
*1000 FILLER_1_721
*1001 FILLER_1_727
*1002 FILLER_1_729
*1003 FILLER_1_741
*1004 FILLER_1_753
*1005 FILLER_1_765
*1006 FILLER_1_777
*1007 FILLER_1_783
*1008 FILLER_1_785
*1009 FILLER_1_797
*1010 FILLER_1_809
*1011 FILLER_1_81
*1012 FILLER_1_821
*1013 FILLER_1_833
*1014 FILLER_1_839
*1015 FILLER_1_841
*1016 FILLER_1_853
*1017 FILLER_1_865
*1018 FILLER_1_877
*1019 FILLER_1_889
*1020 FILLER_1_895
*1021 FILLER_1_897
*1022 FILLER_1_909
*1023 FILLER_1_921
*1024 FILLER_1_93
*1025 FILLER_1_933
*1026 FILLER_1_945
*1027 FILLER_1_951
*1028 FILLER_1_953
*1029 FILLER_1_965
*1030 FILLER_1_977
*1031 FILLER_1_989
*1032 FILLER_20_109
*1033 FILLER_20_121
*1034 FILLER_20_133
*1035 FILLER_20_139
*1036 FILLER_20_1393
*1037 FILLER_20_1405
*1038 FILLER_20_141
*1039 FILLER_20_1417
*1040 FILLER_20_1419
*1041 FILLER_20_1431
*1042 FILLER_20_1443
*1043 FILLER_20_15
*1044 FILLER_20_153
*1045 FILLER_20_165
*1046 FILLER_20_177
*1047 FILLER_20_189
*1048 FILLER_20_195
*1049 FILLER_20_197
*1050 FILLER_20_209
*1051 FILLER_20_221
*1052 FILLER_20_233
*1053 FILLER_20_245
*1054 FILLER_20_251
*1055 FILLER_20_253
*1056 FILLER_20_265
*1057 FILLER_20_27
*1058 FILLER_20_277
*1059 FILLER_20_289
*1060 FILLER_20_29
*1061 FILLER_20_3
*1062 FILLER_20_301
*1063 FILLER_20_307
*1064 FILLER_20_309
*1065 FILLER_20_321
*1066 FILLER_20_333
*1067 FILLER_20_345
*1068 FILLER_20_357
*1069 FILLER_20_363
*1070 FILLER_20_365
*1071 FILLER_20_377
*1072 FILLER_20_389
*1073 FILLER_20_401
*1074 FILLER_20_41
*1075 FILLER_20_413
*1076 FILLER_20_419
*1077 FILLER_20_421
*1078 FILLER_20_433
*1079 FILLER_20_445
*1080 FILLER_20_457
*1081 FILLER_20_469
*1082 FILLER_20_53
*1083 FILLER_20_65
*1084 FILLER_20_77
*1085 FILLER_20_83
*1086 FILLER_20_85
*1087 FILLER_20_97
*1088 FILLER_21_105
*1089 FILLER_21_111
*1090 FILLER_21_113
*1091 FILLER_21_125
*1092 FILLER_21_137
*1093 FILLER_21_1393
*1094 FILLER_21_1405
*1095 FILLER_21_1417
*1096 FILLER_21_1429
*1097 FILLER_21_1441
*1098 FILLER_21_1445
*1099 FILLER_21_1447
*1100 FILLER_21_149
*1101 FILLER_21_15
*1102 FILLER_21_161
*1103 FILLER_21_167
*1104 FILLER_21_169
*1105 FILLER_21_181
*1106 FILLER_21_193
*1107 FILLER_21_205
*1108 FILLER_21_217
*1109 FILLER_21_223
*1110 FILLER_21_225
*1111 FILLER_21_237
*1112 FILLER_21_249
*1113 FILLER_21_261
*1114 FILLER_21_27
*1115 FILLER_21_273
*1116 FILLER_21_279
*1117 FILLER_21_281
*1118 FILLER_21_293
*1119 FILLER_21_3
*1120 FILLER_21_305
*1121 FILLER_21_317
*1122 FILLER_21_329
*1123 FILLER_21_335
*1124 FILLER_21_337
*1125 FILLER_21_349
*1126 FILLER_21_361
*1127 FILLER_21_373
*1128 FILLER_21_385
*1129 FILLER_21_39
*1130 FILLER_21_391
*1131 FILLER_21_393
*1132 FILLER_21_405
*1133 FILLER_21_417
*1134 FILLER_21_429
*1135 FILLER_21_441
*1136 FILLER_21_447
*1137 FILLER_21_449
*1138 FILLER_21_461
*1139 FILLER_21_469
*1140 FILLER_21_51
*1141 FILLER_21_55
*1142 FILLER_21_57
*1143 FILLER_21_69
*1144 FILLER_21_81
*1145 FILLER_21_93
*1146 FILLER_22_109
*1147 FILLER_22_121
*1148 FILLER_22_133
*1149 FILLER_22_139
*1150 FILLER_22_1393
*1151 FILLER_22_1405
*1152 FILLER_22_141
*1153 FILLER_22_1417
*1154 FILLER_22_1419
*1155 FILLER_22_1431
*1156 FILLER_22_1443
*1157 FILLER_22_15
*1158 FILLER_22_153
*1159 FILLER_22_165
*1160 FILLER_22_177
*1161 FILLER_22_189
*1162 FILLER_22_195
*1163 FILLER_22_197
*1164 FILLER_22_209
*1165 FILLER_22_221
*1166 FILLER_22_233
*1167 FILLER_22_245
*1168 FILLER_22_251
*1169 FILLER_22_253
*1170 FILLER_22_265
*1171 FILLER_22_27
*1172 FILLER_22_277
*1173 FILLER_22_289
*1174 FILLER_22_29
*1175 FILLER_22_3
*1176 FILLER_22_301
*1177 FILLER_22_307
*1178 FILLER_22_309
*1179 FILLER_22_321
*1180 FILLER_22_333
*1181 FILLER_22_345
*1182 FILLER_22_357
*1183 FILLER_22_363
*1184 FILLER_22_365
*1185 FILLER_22_377
*1186 FILLER_22_389
*1187 FILLER_22_401
*1188 FILLER_22_41
*1189 FILLER_22_413
*1190 FILLER_22_419
*1191 FILLER_22_421
*1192 FILLER_22_433
*1193 FILLER_22_445
*1194 FILLER_22_457
*1195 FILLER_22_469
*1196 FILLER_22_53
*1197 FILLER_22_65
*1198 FILLER_22_77
*1199 FILLER_22_83
*1200 FILLER_22_85
*1201 FILLER_22_97
*1202 FILLER_23_105
*1203 FILLER_23_111
*1204 FILLER_23_113
*1205 FILLER_23_125
*1206 FILLER_23_137
*1207 FILLER_23_1393
*1208 FILLER_23_1405
*1209 FILLER_23_1417
*1210 FILLER_23_1429
*1211 FILLER_23_1441
*1212 FILLER_23_1445
*1213 FILLER_23_1447
*1214 FILLER_23_149
*1215 FILLER_23_15
*1216 FILLER_23_161
*1217 FILLER_23_167
*1218 FILLER_23_169
*1219 FILLER_23_181
*1220 FILLER_23_193
*1221 FILLER_23_205
*1222 FILLER_23_217
*1223 FILLER_23_223
*1224 FILLER_23_225
*1225 FILLER_23_237
*1226 FILLER_23_249
*1227 FILLER_23_261
*1228 FILLER_23_27
*1229 FILLER_23_273
*1230 FILLER_23_279
*1231 FILLER_23_281
*1232 FILLER_23_293
*1233 FILLER_23_3
*1234 FILLER_23_305
*1235 FILLER_23_317
*1236 FILLER_23_329
*1237 FILLER_23_335
*1238 FILLER_23_337
*1239 FILLER_23_349
*1240 FILLER_23_361
*1241 FILLER_23_373
*1242 FILLER_23_385
*1243 FILLER_23_39
*1244 FILLER_23_391
*1245 FILLER_23_393
*1246 FILLER_23_405
*1247 FILLER_23_417
*1248 FILLER_23_429
*1249 FILLER_23_441
*1250 FILLER_23_447
*1251 FILLER_23_449
*1252 FILLER_23_461
*1253 FILLER_23_469
*1254 FILLER_23_51
*1255 FILLER_23_55
*1256 FILLER_23_57
*1257 FILLER_23_69
*1258 FILLER_23_81
*1259 FILLER_23_93
*1260 FILLER_24_109
*1261 FILLER_24_121
*1262 FILLER_24_133
*1263 FILLER_24_139
*1264 FILLER_24_1393
*1265 FILLER_24_1405
*1266 FILLER_24_141
*1267 FILLER_24_1417
*1268 FILLER_24_1419
*1269 FILLER_24_1431
*1270 FILLER_24_1443
*1271 FILLER_24_15
*1272 FILLER_24_153
*1273 FILLER_24_165
*1274 FILLER_24_177
*1275 FILLER_24_189
*1276 FILLER_24_195
*1277 FILLER_24_197
*1278 FILLER_24_209
*1279 FILLER_24_221
*1280 FILLER_24_233
*1281 FILLER_24_245
*1282 FILLER_24_251
*1283 FILLER_24_253
*1284 FILLER_24_265
*1285 FILLER_24_27
*1286 FILLER_24_277
*1287 FILLER_24_289
*1288 FILLER_24_29
*1289 FILLER_24_3
*1290 FILLER_24_301
*1291 FILLER_24_307
*1292 FILLER_24_309
*1293 FILLER_24_321
*1294 FILLER_24_333
*1295 FILLER_24_345
*1296 FILLER_24_357
*1297 FILLER_24_363
*1298 FILLER_24_365
*1299 FILLER_24_377
*1300 FILLER_24_389
*1301 FILLER_24_401
*1302 FILLER_24_41
*1303 FILLER_24_413
*1304 FILLER_24_419
*1305 FILLER_24_421
*1306 FILLER_24_433
*1307 FILLER_24_445
*1308 FILLER_24_457
*1309 FILLER_24_469
*1310 FILLER_24_53
*1311 FILLER_24_65
*1312 FILLER_24_77
*1313 FILLER_24_83
*1314 FILLER_24_85
*1315 FILLER_24_97
*1316 FILLER_25_105
*1317 FILLER_25_111
*1318 FILLER_25_113
*1319 FILLER_25_125
*1320 FILLER_25_137
*1321 FILLER_25_1393
*1322 FILLER_25_1405
*1323 FILLER_25_1417
*1324 FILLER_25_1429
*1325 FILLER_25_1441
*1326 FILLER_25_1445
*1327 FILLER_25_1447
*1328 FILLER_25_149
*1329 FILLER_25_15
*1330 FILLER_25_161
*1331 FILLER_25_167
*1332 FILLER_25_169
*1333 FILLER_25_181
*1334 FILLER_25_193
*1335 FILLER_25_205
*1336 FILLER_25_217
*1337 FILLER_25_223
*1338 FILLER_25_225
*1339 FILLER_25_237
*1340 FILLER_25_249
*1341 FILLER_25_261
*1342 FILLER_25_27
*1343 FILLER_25_273
*1344 FILLER_25_279
*1345 FILLER_25_281
*1346 FILLER_25_293
*1347 FILLER_25_3
*1348 FILLER_25_305
*1349 FILLER_25_317
*1350 FILLER_25_329
*1351 FILLER_25_335
*1352 FILLER_25_337
*1353 FILLER_25_349
*1354 FILLER_25_361
*1355 FILLER_25_373
*1356 FILLER_25_385
*1357 FILLER_25_39
*1358 FILLER_25_391
*1359 FILLER_25_393
*1360 FILLER_25_405
*1361 FILLER_25_417
*1362 FILLER_25_429
*1363 FILLER_25_441
*1364 FILLER_25_447
*1365 FILLER_25_449
*1366 FILLER_25_461
*1367 FILLER_25_469
*1368 FILLER_25_51
*1369 FILLER_25_55
*1370 FILLER_25_57
*1371 FILLER_25_69
*1372 FILLER_25_81
*1373 FILLER_25_93
*1374 FILLER_26_109
*1375 FILLER_26_121
*1376 FILLER_26_133
*1377 FILLER_26_139
*1378 FILLER_26_1393
*1379 FILLER_26_1405
*1380 FILLER_26_141
*1381 FILLER_26_1417
*1382 FILLER_26_1419
*1383 FILLER_26_1431
*1384 FILLER_26_1443
*1385 FILLER_26_15
*1386 FILLER_26_153
*1387 FILLER_26_165
*1388 FILLER_26_177
*1389 FILLER_26_189
*1390 FILLER_26_195
*1391 FILLER_26_197
*1392 FILLER_26_209
*1393 FILLER_26_221
*1394 FILLER_26_233
*1395 FILLER_26_245
*1396 FILLER_26_251
*1397 FILLER_26_253
*1398 FILLER_26_265
*1399 FILLER_26_27
*1400 FILLER_26_277
*1401 FILLER_26_289
*1402 FILLER_26_29
*1403 FILLER_26_3
*1404 FILLER_26_301
*1405 FILLER_26_307
*1406 FILLER_26_309
*1407 FILLER_26_321
*1408 FILLER_26_333
*1409 FILLER_26_345
*1410 FILLER_26_357
*1411 FILLER_26_363
*1412 FILLER_26_365
*1413 FILLER_26_377
*1414 FILLER_26_389
*1415 FILLER_26_401
*1416 FILLER_26_41
*1417 FILLER_26_413
*1418 FILLER_26_419
*1419 FILLER_26_421
*1420 FILLER_26_433
*1421 FILLER_26_445
*1422 FILLER_26_457
*1423 FILLER_26_469
*1424 FILLER_26_53
*1425 FILLER_26_65
*1426 FILLER_26_77
*1427 FILLER_26_83
*1428 FILLER_26_85
*1429 FILLER_26_97
*1430 FILLER_27_105
*1431 FILLER_27_111
*1432 FILLER_27_113
*1433 FILLER_27_125
*1434 FILLER_27_137
*1435 FILLER_27_1393
*1436 FILLER_27_1405
*1437 FILLER_27_1417
*1438 FILLER_27_1429
*1439 FILLER_27_1441
*1440 FILLER_27_1445
*1441 FILLER_27_1447
*1442 FILLER_27_149
*1443 FILLER_27_15
*1444 FILLER_27_161
*1445 FILLER_27_167
*1446 FILLER_27_169
*1447 FILLER_27_181
*1448 FILLER_27_193
*1449 FILLER_27_205
*1450 FILLER_27_217
*1451 FILLER_27_223
*1452 FILLER_27_225
*1453 FILLER_27_237
*1454 FILLER_27_249
*1455 FILLER_27_261
*1456 FILLER_27_27
*1457 FILLER_27_273
*1458 FILLER_27_279
*1459 FILLER_27_281
*1460 FILLER_27_293
*1461 FILLER_27_3
*1462 FILLER_27_305
*1463 FILLER_27_317
*1464 FILLER_27_329
*1465 FILLER_27_335
*1466 FILLER_27_337
*1467 FILLER_27_349
*1468 FILLER_27_361
*1469 FILLER_27_373
*1470 FILLER_27_385
*1471 FILLER_27_39
*1472 FILLER_27_391
*1473 FILLER_27_393
*1474 FILLER_27_405
*1475 FILLER_27_417
*1476 FILLER_27_429
*1477 FILLER_27_441
*1478 FILLER_27_447
*1479 FILLER_27_449
*1480 FILLER_27_461
*1481 FILLER_27_469
*1482 FILLER_27_51
*1483 FILLER_27_55
*1484 FILLER_27_57
*1485 FILLER_27_69
*1486 FILLER_27_81
*1487 FILLER_27_93
*1488 FILLER_28_109
*1489 FILLER_28_121
*1490 FILLER_28_133
*1491 FILLER_28_139
*1492 FILLER_28_1393
*1493 FILLER_28_1405
*1494 FILLER_28_141
*1495 FILLER_28_1417
*1496 FILLER_28_1419
*1497 FILLER_28_1431
*1498 FILLER_28_1443
*1499 FILLER_28_15
*1500 FILLER_28_153
*1501 FILLER_28_165
*1502 FILLER_28_177
*1503 FILLER_28_189
*1504 FILLER_28_195
*1505 FILLER_28_197
*1506 FILLER_28_209
*1507 FILLER_28_221
*1508 FILLER_28_233
*1509 FILLER_28_245
*1510 FILLER_28_251
*1511 FILLER_28_253
*1512 FILLER_28_265
*1513 FILLER_28_27
*1514 FILLER_28_277
*1515 FILLER_28_289
*1516 FILLER_28_29
*1517 FILLER_28_3
*1518 FILLER_28_301
*1519 FILLER_28_307
*1520 FILLER_28_309
*1521 FILLER_28_321
*1522 FILLER_28_333
*1523 FILLER_28_345
*1524 FILLER_28_357
*1525 FILLER_28_363
*1526 FILLER_28_365
*1527 FILLER_28_377
*1528 FILLER_28_389
*1529 FILLER_28_401
*1530 FILLER_28_41
*1531 FILLER_28_413
*1532 FILLER_28_419
*1533 FILLER_28_421
*1534 FILLER_28_433
*1535 FILLER_28_445
*1536 FILLER_28_457
*1537 FILLER_28_469
*1538 FILLER_28_53
*1539 FILLER_28_65
*1540 FILLER_28_77
*1541 FILLER_28_83
*1542 FILLER_28_85
*1543 FILLER_28_97
*1544 FILLER_29_105
*1545 FILLER_29_111
*1546 FILLER_29_113
*1547 FILLER_29_125
*1548 FILLER_29_137
*1549 FILLER_29_1393
*1550 FILLER_29_1405
*1551 FILLER_29_1417
*1552 FILLER_29_1429
*1553 FILLER_29_1441
*1554 FILLER_29_1445
*1555 FILLER_29_1447
*1556 FILLER_29_149
*1557 FILLER_29_15
*1558 FILLER_29_161
*1559 FILLER_29_167
*1560 FILLER_29_169
*1561 FILLER_29_181
*1562 FILLER_29_193
*1563 FILLER_29_205
*1564 FILLER_29_217
*1565 FILLER_29_223
*1566 FILLER_29_225
*1567 FILLER_29_237
*1568 FILLER_29_249
*1569 FILLER_29_261
*1570 FILLER_29_27
*1571 FILLER_29_273
*1572 FILLER_29_279
*1573 FILLER_29_281
*1574 FILLER_29_293
*1575 FILLER_29_3
*1576 FILLER_29_305
*1577 FILLER_29_317
*1578 FILLER_29_329
*1579 FILLER_29_335
*1580 FILLER_29_337
*1581 FILLER_29_349
*1582 FILLER_29_361
*1583 FILLER_29_373
*1584 FILLER_29_385
*1585 FILLER_29_39
*1586 FILLER_29_391
*1587 FILLER_29_393
*1588 FILLER_29_405
*1589 FILLER_29_417
*1590 FILLER_29_429
*1591 FILLER_29_441
*1592 FILLER_29_447
*1593 FILLER_29_449
*1594 FILLER_29_461
*1595 FILLER_29_469
*1596 FILLER_29_51
*1597 FILLER_29_55
*1598 FILLER_29_57
*1599 FILLER_29_69
*1600 FILLER_29_81
*1601 FILLER_29_93
*1602 FILLER_2_1005
*1603 FILLER_2_1017
*1604 FILLER_2_1029
*1605 FILLER_2_1035