*SPEF "ieee 1481-1999"
*DESIGN "tt_um_vga_clock"
*DATE "11:11:11 Fri 11 11, 1111"
*VENDOR "OpenRCX"
*PROGRAM "Parallel Extraction"
*VERSION "1.0"
*DESIGN_FLOW "NAME_SCOPE LOCAL" "PIN_CAP NONE"
*DIVIDER /
*DELIMITER :
*BUS_DELIMITER []
*T_UNIT 1 NS
*C_UNIT 1 PF
*R_UNIT 1 OHM
*L_UNIT 1 HENRY

*NAME_MAP
*1 clk
*2 ena
*3 rst_n
*4 ui_in[0]
*5 ui_in[1]
*6 ui_in[2]
*7 ui_in[3]
*8 ui_in[4]
*9 ui_in[5]
*10 ui_in[6]
*11 ui_in[7]
*12 uio_in[0]
*13 uio_in[1]
*14 uio_in[2]
*15 uio_in[3]
*16 uio_in[4]
*17 uio_in[5]
*18 uio_in[6]
*19 uio_in[7]
*20 net5
*21 net6
*22 net7
*23 net8
*24 net9
*25 net10
*26 net11
*27 net12
*28 net13
*29 net14
*30 net15
*31 net16
*32 net17
*33 net18
*34 net19
*35 net20
*36 uo_out[0]
*37 uo_out[1]
*38 uo_out[2]
*39 uo_out[3]
*40 uo_out[4]
*41 uo_out[5]
*42 uo_out[6]
*43 uo_out[7]
*46 _0000_
*47 _0001_
*48 _0002_
*49 _0003_
*50 _0004_
*51 _0005_
*52 _0006_
*53 _0007_
*54 _0008_
*55 _0009_
*56 _0010_
*57 _0011_
*58 _0012_
*59 _0013_
*60 _0014_
*61 _0015_
*62 _0016_
*63 _0017_
*64 _0018_
*65 _0019_
*66 _0020_
*67 _0021_
*68 _0022_
*69 _0023_
*70 _0024_
*71 _0025_
*72 _0026_
*73 _0027_
*74 _0028_
*75 _0029_
*76 _0030_
*77 _0031_
*78 _0032_
*79 _0033_
*80 _0034_
*81 _0035_
*82 _0036_
*83 _0037_
*84 _0038_
*85 _0039_
*86 _0040_
*87 _0041_
*88 _0042_
*89 _0043_
*90 _0044_
*91 _0045_
*92 _0046_
*93 _0047_
*94 _0048_
*95 _0049_
*96 _0050_
*97 _0051_
*98 _0052_
*99 _0053_
*100 _0054_
*101 _0055_
*102 _0056_
*103 _0057_
*104 _0058_
*105 _0059_
*106 _0060_
*107 _0061_
*108 _0062_
*109 _0063_
*110 _0064_
*111 _0065_
*112 _0066_
*113 _0067_
*114 _0068_
*115 _0069_
*116 _0070_
*117 _0071_
*118 _0072_
*119 _0073_
*120 _0074_
*121 _0075_
*122 _0076_
*123 _0077_
*124 _0078_
*125 _0079_
*126 _0080_
*127 _0081_
*128 _0082_
*129 _0083_
*130 _0084_
*131 _0085_
*132 _0086_
*133 _0087_
*134 _0088_
*135 _0089_
*136 _0090_
*137 _0091_
*138 _0092_
*139 _0093_
*140 _0094_
*141 _0095_
*142 _0096_
*143 _0097_
*144 _0098_
*145 _0099_
*146 _0100_
*147 _0101_
*148 _0102_
*149 _0103_
*150 _0104_
*151 _0105_
*152 _0106_
*153 _0107_
*154 _0108_
*155 _0109_
*156 _0110_
*157 _0111_
*158 _0112_
*159 _0113_
*160 _0114_
*161 _0115_
*162 _0116_
*163 _0117_
*164 _0118_
*165 _0119_
*166 _0120_
*167 _0121_
*168 _0122_
*169 _0123_
*170 _0124_
*171 _0125_
*172 _0126_
*173 _0127_
*174 _0128_
*175 _0129_
*176 _0130_
*177 _0131_
*178 _0132_
*179 _0133_
*180 _0134_
*181 _0135_
*182 _0136_
*183 _0137_
*184 _0138_
*185 _0139_
*186 _0140_
*187 _0141_
*188 _0142_
*189 _0143_
*190 _0144_
*191 _0145_
*192 _0146_
*193 _0147_
*194 _0148_
*195 _0149_
*196 _0150_
*197 _0151_
*198 _0152_
*199 _0153_
*200 _0154_
*201 _0155_
*202 _0156_
*203 _0157_
*204 _0158_
*205 _0159_
*206 _0160_
*207 _0161_
*208 _0162_
*209 _0163_
*210 _0164_
*211 _0165_
*212 _0166_
*213 _0167_
*214 _0168_
*215 _0169_
*216 _0170_
*217 _0171_
*218 _0172_
*219 _0173_
*220 _0174_
*221 _0175_
*222 _0176_
*223 _0177_
*224 _0178_
*225 _0179_
*226 _0180_
*227 _0181_
*228 _0182_
*229 _0183_
*230 _0184_
*231 _0185_
*232 _0186_
*233 _0187_
*234 _0188_
*235 _0189_
*236 _0190_
*237 _0191_
*238 _0192_
*239 _0193_
*240 _0194_
*241 _0195_
*242 _0196_
*243 _0197_
*244 _0198_
*245 _0199_
*246 _0200_
*247 _0201_
*248 _0202_
*249 _0203_
*250 _0204_
*251 _0205_
*252 _0206_
*253 _0207_
*254 _0208_
*255 _0209_
*256 _0210_
*257 _0211_
*258 _0212_
*259 _0213_
*260 _0214_
*261 _0215_
*262 _0216_
*263 _0217_
*264 _0218_
*265 _0219_
*266 _0220_
*267 _0221_
*268 _0222_
*269 _0223_
*270 _0224_
*271 _0225_
*272 _0226_
*273 _0227_
*274 _0228_
*275 _0229_
*276 _0230_
*277 _0231_
*278 _0232_
*279 _0233_
*280 _0234_
*281 _0235_
*282 _0236_
*283 _0237_
*284 _0238_
*285 _0239_
*286 _0240_
*287 _0241_
*288 _0242_
*289 _0243_
*290 _0244_
*291 _0245_
*292 _0246_
*293 _0247_
*294 _0248_
*295 _0249_
*296 _0250_
*297 _0251_
*298 _0252_
*299 _0253_
*300 _0254_
*301 _0255_
*302 _0256_
*303 _0257_
*304 _0258_
*305 _0259_
*306 _0260_
*307 _0261_
*308 _0262_
*309 _0263_
*310 _0264_
*311 _0265_
*312 _0266_
*313 _0267_
*314 _0268_
*315 _0269_
*316 _0270_
*317 _0271_
*318 _0272_
*319 _0273_
*320 _0274_
*321 _0275_
*322 _0276_
*323 _0277_
*324 _0278_
*325 _0279_
*326 _0280_
*327 _0281_
*328 _0282_
*329 _0283_
*330 _0284_
*331 _0285_
*332 _0286_
*333 _0287_
*334 _0288_
*335 _0289_
*336 _0290_
*337 _0291_
*338 _0292_
*339 _0293_
*340 _0294_
*341 _0295_
*342 _0296_
*343 _0297_
*344 _0298_
*345 _0299_
*346 _0300_
*347 _0301_
*348 _0302_
*349 _0303_
*350 _0304_
*351 _0305_
*352 _0306_
*353 _0307_
*354 _0308_
*355 _0309_
*356 _0310_
*357 _0311_
*358 _0312_
*359 _0313_
*360 _0314_
*361 _0315_
*362 _0316_
*363 _0317_
*364 _0318_
*365 _0319_
*366 _0320_
*367 _0321_
*368 _0322_
*369 _0323_
*370 _0324_
*371 _0325_
*372 _0326_
*373 _0327_
*374 _0328_
*375 _0329_
*376 _0330_
*377 _0331_
*378 _0332_
*379 _0333_
*380 _0334_
*381 _0335_
*382 _0336_
*383 _0337_
*384 _0338_
*385 _0339_
*386 _0340_
*387 _0341_
*388 _0342_
*389 _0343_
*390 _0344_
*391 _0345_
*392 _0346_
*393 _0347_
*394 _0348_
*395 _0349_
*396 _0350_
*397 _0351_
*398 _0352_
*399 _0353_
*400 _0354_
*401 _0355_
*402 _0356_
*403 _0357_
*404 _0358_
*405 _0359_
*406 _0360_
*407 _0361_
*408 _0362_
*409 _0363_
*410 _0364_
*411 _0365_
*412 _0366_
*413 _0367_
*414 _0368_
*415 _0369_
*416 _0370_
*417 _0371_
*418 _0372_
*419 _0373_
*420 _0374_
*421 _0375_
*422 _0376_
*423 _0377_
*424 _0378_
*425 _0379_
*426 _0380_
*427 _0381_
*428 _0382_
*429 _0383_
*430 _0384_
*431 _0385_
*432 _0386_
*433 _0387_
*434 _0388_
*435 _0389_
*436 _0390_
*437 _0391_
*438 _0392_
*439 _0393_
*440 _0394_
*441 _0395_
*442 _0396_
*443 _0397_
*444 _0398_
*445 _0399_
*446 _0400_
*447 _0401_
*448 _0402_
*449 _0403_
*450 _0404_
*451 _0405_
*452 _0406_
*453 _0407_
*454 _0408_
*455 _0409_
*456 _0410_
*457 _0411_
*458 _0412_
*459 _0413_
*460 _0414_
*461 _0415_
*462 _0416_
*463 _0417_
*464 _0418_
*465 _0419_
*466 _0420_
*467 _0421_
*468 _0422_
*469 _0423_
*470 _0424_
*471 _0425_
*472 _0426_
*473 _0427_
*474 _0428_
*475 _0429_
*476 _0430_
*477 _0431_
*478 _0432_
*479 _0433_
*480 _0434_
*481 _0435_
*482 _0436_
*483 _0437_
*484 _0438_
*485 _0439_
*486 _0440_
*487 _0441_
*488 _0442_
*489 _0443_
*490 _0444_
*491 _0445_
*492 _0446_
*493 _0447_
*494 _0448_
*495 _0449_
*496 _0450_
*497 _0451_
*498 _0452_
*499 _0453_
*500 _0454_
*501 _0455_
*502 _0456_
*503 _0457_
*504 _0458_
*505 _0459_
*506 _0460_
*507 _0461_
*508 _0462_
*509 _0463_
*510 _0464_
*511 _0465_
*512 _0466_
*513 _0467_
*514 _0468_
*515 _0469_
*516 _0470_
*517 _0471_
*518 _0472_
*519 _0473_
*520 _0474_
*521 _0475_
*522 _0476_
*523 _0477_
*524 _0478_
*525 _0479_
*526 _0480_
*527 _0481_
*528 _0482_
*529 _0483_
*530 _0484_
*531 _0485_
*532 _0486_
*533 _0487_
*534 _0488_
*535 _0489_
*536 _0490_
*537 _0491_
*538 _0492_
*539 _0493_
*540 _0494_
*541 _0495_
*542 _0496_
*543 _0497_
*544 _0498_
*545 _0499_
*546 _0500_
*547 _0501_
*548 _0502_
*549 _0503_
*550 _0504_
*551 _0505_
*552 _0506_
*553 _0507_
*554 _0508_
*555 _0509_
*556 _0510_
*557 _0511_
*558 _0512_
*559 _0513_
*560 _0514_
*561 _0515_
*562 _0516_
*563 _0517_
*564 _0518_
*565 _0519_
*566 _0520_
*567 _0521_
*568 _0522_
*569 _0523_
*570 _0524_
*571 _0525_
*572 _0526_
*573 _0527_
*574 _0528_
*575 _0529_
*576 _0530_
*577 _0531_
*578 _0532_
*579 _0533_
*580 _0534_
*581 _0535_
*582 _0536_
*583 _0537_
*584 _0538_
*585 _0539_
*586 _0540_
*587 _0541_
*588 _0542_
*589 _0543_
*590 _0544_
*591 _0545_
*592 _0546_
*593 _0547_
*594 _0548_
*595 _0549_
*596 _0550_
*597 _0551_
*598 _0552_
*599 _0553_
*600 _0554_
*601 _0555_
*602 _0556_
*603 _0557_
*604 _0558_
*605 _0559_
*606 _0560_
*607 _0561_
*608 _0562_
*609 _0563_
*610 _0564_
*611 _0565_
*612 _0566_
*613 _0567_
*614 _0568_
*615 _0569_
*616 _0570_
*617 _0571_
*618 _0572_
*619 _0573_
*620 _0574_
*621 _0575_
*622 _0576_
*623 _0577_
*624 _0578_
*625 _0579_
*626 _0580_
*627 _0581_
*628 _0582_
*629 _0583_
*630 _0584_
*631 _0585_
*632 _0586_
*633 _0587_
*634 _0588_
*635 _0589_
*636 _0590_
*637 _0591_
*638 _0592_
*639 _0593_
*640 _0594_
*641 _0595_
*642 _0596_
*643 _0597_
*644 _0598_
*645 _0599_
*646 _0600_
*647 _0601_
*648 _0602_
*649 _0603_
*650 _0604_
*651 _0605_
*652 _0606_
*653 _0607_
*654 _0608_
*655 _0609_
*656 _0610_
*657 _0611_
*658 _0612_
*659 _0613_
*660 _0614_
*661 _0615_
*662 _0616_
*663 _0617_
*664 _0618_
*665 _0619_
*666 _0620_
*667 _0621_
*668 _0622_
*669 _0623_
*670 _0624_
*671 _0625_
*672 _0626_
*673 _0627_
*674 _0628_
*675 _0629_
*676 _0630_
*677 _0631_
*678 _0632_
*679 _0633_
*680 _0634_
*681 _0635_
*682 _0636_
*683 _0637_
*684 _0638_
*685 clknet_0_clk
*686 clknet_4_0_0_clk
*687 clknet_4_10_0_clk
*688 clknet_4_11_0_clk
*689 clknet_4_12_0_clk
*690 clknet_4_13_0_clk
*691 clknet_4_14_0_clk
*692 clknet_4_15_0_clk
*693 clknet_4_1_0_clk
*694 clknet_4_2_0_clk
*695 clknet_4_3_0_clk
*696 clknet_4_4_0_clk
*697 clknet_4_5_0_clk
*698 clknet_4_6_0_clk
*699 clknet_4_7_0_clk
*700 clknet_4_8_0_clk
*701 clknet_4_9_0_clk
*702 net1
*703 net2
*704 net21
*705 net22
*706 net3
*707 net4
*708 vga_clock\.col_index\[0\]
*709 vga_clock\.col_index\[1\]
*710 vga_clock\.col_index_q\[0\]
*711 vga_clock\.col_index_q\[1\]
*712 vga_clock\.color\[0\]
*713 vga_clock\.color\[1\]
*714 vga_clock\.color\[2\]
*715 vga_clock\.color\[3\]
*716 vga_clock\.color\[4\]
*717 vga_clock\.color\[5\]
*718 vga_clock\.color_offset\[0\]
*719 vga_clock\.color_offset\[1\]
*720 vga_clock\.color_offset\[2\]
*721 vga_clock\.digit_0\.char\[0\]
*722 vga_clock\.digit_0\.char\[1\]
*723 vga_clock\.digit_0\.char\[2\]
*724 vga_clock\.digit_0\.char\[3\]
*725 vga_clock\.digit_0\.digit_index\[0\]
*726 vga_clock\.digit_0\.digit_index\[1\]
*727 vga_clock\.digit_0\.digit_index\[2\]
*728 vga_clock\.digit_0\.digit_index\[3\]
*729 vga_clock\.digit_0\.digit_index\[4\]
*730 vga_clock\.digit_0\.digit_index\[5\]
*731 vga_clock\.digit_0\.number\[0\]
*732 vga_clock\.digit_0\.number\[1\]
*733 vga_clock\.digit_0\.x_block\[0\]
*734 vga_clock\.digit_0\.x_block\[1\]
*735 vga_clock\.draw
*736 vga_clock\.font_0\.dout\[1\]
*737 vga_clock\.font_0\.dout\[2\]
*738 vga_clock\.font_0\.dout\[3\]
*739 vga_clock\.hrs_d\[0\]
*740 vga_clock\.hrs_d\[1\]
*741 vga_clock\.hrs_u\[0\]
*742 vga_clock\.hrs_u\[1\]
*743 vga_clock\.hrs_u\[2\]
*744 vga_clock\.hrs_u\[3\]
*745 vga_clock\.hsync
*746 vga_clock\.min_d\[0\]
*747 vga_clock\.min_d\[1\]
*748 vga_clock\.min_d\[2\]
*749 vga_clock\.min_u\[0\]
*750 vga_clock\.min_u\[1\]
*751 vga_clock\.min_u\[2\]
*752 vga_clock\.min_u\[3\]
*753 vga_clock\.pulse_hrs\.comp\[0\]
*754 vga_clock\.pulse_hrs\.comp\[1\]
*755 vga_clock\.pulse_hrs\.comp\[2\]
*756 vga_clock\.pulse_hrs\.comp\[3\]
*757 vga_clock\.pulse_hrs\.comp\[4\]
*758 vga_clock\.pulse_hrs\.count\[0\]
*759 vga_clock\.pulse_hrs\.count\[1\]
*760 vga_clock\.pulse_hrs\.count\[2\]
*761 vga_clock\.pulse_hrs\.count\[3\]
*762 vga_clock\.pulse_hrs\.count\[4\]
*763 vga_clock\.pulse_min\.comp\[0\]
*764 vga_clock\.pulse_min\.comp\[1\]
*765 vga_clock\.pulse_min\.comp\[2\]
*766 vga_clock\.pulse_min\.comp\[3\]
*767 vga_clock\.pulse_min\.comp\[4\]
*768 vga_clock\.pulse_min\.count\[0\]
*769 vga_clock\.pulse_min\.count\[1\]
*770 vga_clock\.pulse_min\.count\[2\]
*771 vga_clock\.pulse_min\.count\[3\]
*772 vga_clock\.pulse_min\.count\[4\]
*773 vga_clock\.pulse_sec\.comp\[0\]
*774 vga_clock\.pulse_sec\.comp\[1\]
*775 vga_clock\.pulse_sec\.comp\[2\]
*776 vga_clock\.pulse_sec\.comp\[3\]
*777 vga_clock\.pulse_sec\.comp\[4\]
*778 vga_clock\.pulse_sec\.count\[0\]
*779 vga_clock\.pulse_sec\.count\[1\]
*780 vga_clock\.pulse_sec\.count\[2\]
*781 vga_clock\.pulse_sec\.count\[3\]
*782 vga_clock\.pulse_sec\.count\[4\]
*783 vga_clock\.sec_counter\[0\]
*784 vga_clock\.sec_counter\[10\]
*785 vga_clock\.sec_counter\[11\]
*786 vga_clock\.sec_counter\[12\]
*787 vga_clock\.sec_counter\[13\]
*788 vga_clock\.sec_counter\[14\]
*789 vga_clock\.sec_counter\[15\]
*790 vga_clock\.sec_counter\[16\]
*791 vga_clock\.sec_counter\[17\]
*792 vga_clock\.sec_counter\[18\]
*793 vga_clock\.sec_counter\[19\]
*794 vga_clock\.sec_counter\[1\]
*795 vga_clock\.sec_counter\[20\]
*796 vga_clock\.sec_counter\[21\]
*797 vga_clock\.sec_counter\[22\]
*798 vga_clock\.sec_counter\[23\]
*799 vga_clock\.sec_counter\[24\]
*800 vga_clock\.sec_counter\[25\]
*801 vga_clock\.sec_counter\[2\]
*802 vga_clock\.sec_counter\[3\]
*803 vga_clock\.sec_counter\[4\]
*804 vga_clock\.sec_counter\[5\]
*805 vga_clock\.sec_counter\[6\]
*806 vga_clock\.sec_counter\[7\]
*807 vga_clock\.sec_counter\[8\]
*808 vga_clock\.sec_counter\[9\]
*809 vga_clock\.sec_d\[0\]
*810 vga_clock\.sec_d\[1\]
*811 vga_clock\.sec_d\[2\]
*812 vga_clock\.sec_u\[0\]
*813 vga_clock\.sec_u\[1\]
*814 vga_clock\.sec_u\[2\]
*815 vga_clock\.sec_u\[3\]
*816 vga_clock\.vga_0\.hc\[0\]
*817 vga_clock\.vga_0\.hc\[1\]
*818 vga_clock\.vga_0\.hc\[2\]
*819 vga_clock\.vga_0\.hc\[3\]
*820 vga_clock\.vga_0\.hc\[4\]
*821 vga_clock\.vga_0\.hc\[5\]
*822 vga_clock\.vga_0\.hc\[6\]
*823 vga_clock\.vga_0\.hc\[7\]
*824 vga_clock\.vga_0\.hc\[8\]
*825 vga_clock\.vga_0\.hc\[9\]
*826 vga_clock\.vga_0\.vc\[0\]
*827 vga_clock\.vga_0\.vc\[1\]
*828 vga_clock\.vga_0\.vc\[2\]
*829 vga_clock\.vga_0\.vc\[3\]
*830 vga_clock\.vga_0\.vc\[4\]
*831 vga_clock\.vga_0\.vc\[5\]
*832 vga_clock\.vga_0\.vc\[6\]
*833 vga_clock\.vga_0\.vc\[7\]
*834 vga_clock\.vga_0\.vc\[8\]
*835 vga_clock\.vga_0\.vc\[9\]
*836 vga_clock\.vga_0\.vsync
*837 vga_clock\.vga_0\.x_px\[0\]
*838 vga_clock\.vga_0\.x_px\[1\]
*839 vga_clock\.vga_0\.x_px\[2\]
*840 vga_clock\.vga_0\.x_px\[3\]
*841 vga_clock\.vga_0\.x_px\[6\]
*842 vga_clock\.vga_0\.x_px\[7\]
*843 vga_clock\.vga_0\.x_px\[8\]
*844 vga_clock\.vga_0\.x_px\[9\]
*845 vga_clock\.vga_0\.y_px\[0\]
*846 vga_clock\.vga_0\.y_px\[1\]
*847 vga_clock\.vga_0\.y_px\[2\]
*848 vga_clock\.vga_0\.y_px\[3\]
*849 vga_clock\.vga_0\.y_px\[4\]
*850 vga_clock\.vga_0\.y_px\[5\]
*851 vga_clock\.vga_0\.y_px\[6\]
*852 vga_clock\.vga_0\.y_px\[7\]
*853 vga_clock\.vga_0\.y_px\[8\]
*854 vga_clock\.vga_0\.y_px\[9\]
*855 vga_clock\.x_block_q\[5\]
*856 vga_clock\.y_block\[0\]
*857 vga_clock\.y_block\[1\]
*858 vga_clock\.y_block\[2\]
*859 vga_clock\.y_block\[3\]
*860 vga_clock\.y_block\[4\]
*861 vga_clock\.y_block\[5\]
*862 vga_clock\.y_block_q\[0\]
*863 vga_clock\.y_block_q\[1\]
*864 vga_clock\.y_block_q\[2\]
*865 vga_clock\.y_block_q\[3\]
*866 vga_clock\.y_block_q\[4\]
*867 vga_clock\.y_block_q\[5\]
*868 FILLER_0_109
*869 FILLER_0_113
*870 FILLER_0_125
*871 FILLER_0_137
*872 FILLER_0_141
*873 FILLER_0_15
*874 FILLER_0_153
*875 FILLER_0_165
*876 FILLER_0_169
*877 FILLER_0_181
*878 FILLER_0_193
*879 FILLER_0_197
*880 FILLER_0_209
*881 FILLER_0_221
*882 FILLER_0_225
*883 FILLER_0_237
*884 FILLER_0_249
*885 FILLER_0_253
*886 FILLER_0_265
*887 FILLER_0_27
*888 FILLER_0_277
*889 FILLER_0_281
*890 FILLER_0_29
*891 FILLER_0_293
*892 FILLER_0_3
*893 FILLER_0_305
*894 FILLER_0_309
*895 FILLER_0_321
*896 FILLER_0_333
*897 FILLER_0_337
*898 FILLER_0_41
*899 FILLER_0_53
*900 FILLER_0_57
*901 FILLER_0_69
*902 FILLER_0_81
*903 FILLER_0_85
*904 FILLER_0_97
*905 FILLER_10_109
*906 FILLER_10_121
*907 FILLER_10_133
*908 FILLER_10_139
*909 FILLER_10_141
*910 FILLER_10_15
*911 FILLER_10_153
*912 FILLER_10_165
*913 FILLER_10_177
*914 FILLER_10_189
*915 FILLER_10_195
*916 FILLER_10_197
*917 FILLER_10_209
*918 FILLER_10_221
*919 FILLER_10_233
*920 FILLER_10_245
*921 FILLER_10_251
*922 FILLER_10_253
*923 FILLER_10_265
*924 FILLER_10_27
*925 FILLER_10_277
*926 FILLER_10_289
*927 FILLER_10_29
*928 FILLER_10_3
*929 FILLER_10_301
*930 FILLER_10_307
*931 FILLER_10_309
*932 FILLER_10_321
*933 FILLER_10_333
*934 FILLER_10_337
*935 FILLER_10_41
*936 FILLER_10_53
*937 FILLER_10_65
*938 FILLER_10_77
*939 FILLER_10_83
*940 FILLER_10_85
*941 FILLER_10_97
*942 FILLER_11_105
*943 FILLER_11_111
*944 FILLER_11_113
*945 FILLER_11_125
*946 FILLER_11_137
*947 FILLER_11_149
*948 FILLER_11_15
*949 FILLER_11_161
*950 FILLER_11_167
*951 FILLER_11_169
*952 FILLER_11_181
*953 FILLER_11_193
*954 FILLER_11_205
*955 FILLER_11_217
*956 FILLER_11_223
*957 FILLER_11_225
*958 FILLER_11_237
*959 FILLER_11_249
*960 FILLER_11_261
*961 FILLER_11_27
*962 FILLER_11_273
*963 FILLER_11_279
*964 FILLER_11_281
*965 FILLER_11_293
*966 FILLER_11_3
*967 FILLER_11_305
*968 FILLER_11_317
*969 FILLER_11_329
*970 FILLER_11_335
*971 FILLER_11_337
*972 FILLER_11_39
*973 FILLER_11_51
*974 FILLER_11_55
*975 FILLER_11_57
*976 FILLER_11_69
*977 FILLER_11_81
*978 FILLER_11_93
*979 FILLER_12_109
*980 FILLER_12_121
*981 FILLER_12_133
*982 FILLER_12_139
*983 FILLER_12_141
*984 FILLER_12_15
*985 FILLER_12_153
*986 FILLER_12_165
*987 FILLER_12_177
*988 FILLER_12_189
*989 FILLER_12_195
*990 FILLER_12_197
*991 FILLER_12_209
*992 FILLER_12_221
*993 FILLER_12_233
*994 FILLER_12_245
*995 FILLER_12_251
*996 FILLER_12_253
*997 FILLER_12_265
*998 FILLER_12_27
*999 FILLER_12_277
*1000 FILLER_12_289
*1001 FILLER_12_29
*1002 FILLER_12_3
*1003 FILLER_12_301
*1004 FILLER_12_307
*1005 FILLER_12_309
*1006 FILLER_12_321
*1007 FILLER_12_333
*1008 FILLER_12_337
*1009 FILLER_12_41
*1010 FILLER_12_53
*1011 FILLER_12_65
*1012 FILLER_12_77
*1013 FILLER_12_83
*1014 FILLER_12_85
*1015 FILLER_12_97
*1016 FILLER_13_105
*1017 FILLER_13_111
*1018 FILLER_13_113
*1019 FILLER_13_125
*1020 FILLER_13_137
*1021 FILLER_13_149
*1022 FILLER_13_15
*1023 FILLER_13_161
*1024 FILLER_13_167
*1025 FILLER_13_169
*1026 FILLER_13_181
*1027 FILLER_13_193
*1028 FILLER_13_205
*1029 FILLER_13_217
*1030 FILLER_13_223
*1031 FILLER_13_225
*1032 FILLER_13_237
*1033 FILLER_13_249
*1034 FILLER_13_261
*1035 FILLER_13_27
*1036 FILLER_13_273
*1037 FILLER_13_279
*1038 FILLER_13_281
*1039 FILLER_13_293
*1040 FILLER_13_3
*1041 FILLER_13_305
*1042 FILLER_13_317
*1043 FILLER_13_329
*1044 FILLER_13_335
*1045 FILLER_13_337
*1046 FILLER_13_39
*1047 FILLER_13_51
*1048 FILLER_13_55
*1049 FILLER_13_57
*1050 FILLER_13_69
*1051 FILLER_13_81
*1052 FILLER_13_93
*1053 FILLER_14_109
*1054 FILLER_14_121
*1055 FILLER_14_133
*1056 FILLER_14_139
*1057 FILLER_14_141
*1058 FILLER_14_15
*1059 FILLER_14_153
*1060 FILLER_14_165
*1061 FILLER_14_169
*1062 FILLER_14_176
*1063 FILLER_14_188
*1064 FILLER_14_197
*1065 FILLER_14_209
*1066 FILLER_14_221
*1067 FILLER_14_233
*1068 FILLER_14_245
*1069 FILLER_14_251
*1070 FILLER_14_253
*1071 FILLER_14_265
*1072 FILLER_14_27
*1073 FILLER_14_277
*1074 FILLER_14_289
*1075 FILLER_14_29
*1076 FILLER_14_3
*1077 FILLER_14_301
*1078 FILLER_14_307
*1079 FILLER_14_309
*1080 FILLER_14_321
*1081 FILLER_14_333
*1082 FILLER_14_337
*1083 FILLER_14_41
*1084 FILLER_14_53
*1085 FILLER_14_65
*1086 FILLER_14_77
*1087 FILLER_14_83
*1088 FILLER_14_85
*1089 FILLER_14_97
*1090 FILLER_15_105
*1091 FILLER_15_111
*1092 FILLER_15_113
*1093 FILLER_15_125
*1094 FILLER_15_137
*1095 FILLER_15_149
*1096 FILLER_15_15
*1097 FILLER_15_161
*1098 FILLER_15_166
*1099 FILLER_15_169
*1100 FILLER_15_179
*1101 FILLER_15_189
*1102 FILLER_15_201
*1103 FILLER_15_213
*1104 FILLER_15_221
*1105 FILLER_15_225
*1106 FILLER_15_237
*1107 FILLER_15_249
*1108 FILLER_15_261
*1109 FILLER_15_27
*1110 FILLER_15_273
*1111 FILLER_15_279
*1112 FILLER_15_281
*1113 FILLER_15_293
*1114 FILLER_15_3
*1115 FILLER_15_305
*1116 FILLER_15_317
*1117 FILLER_15_329
*1118 FILLER_15_335
*1119 FILLER_15_337
*1120 FILLER_15_39
*1121 FILLER_15_51
*1122 FILLER_15_55
*1123 FILLER_15_57
*1124 FILLER_15_69
*1125 FILLER_15_81
*1126 FILLER_15_93
*1127 FILLER_16_109
*1128 FILLER_16_121
*1129 FILLER_16_133
*1130 FILLER_16_139
*1131 FILLER_16_141
*1132 FILLER_16_15
*1133 FILLER_16_153
*1134 FILLER_16_157
*1135 FILLER_16_162
*1136 FILLER_16_175
*1137 FILLER_16_179
*1138 FILLER_16_187
*1139 FILLER_16_194
*1140 FILLER_16_197
*1141 FILLER_16_202
*1142 FILLER_16_214
*1143 FILLER_16_226
*1144 FILLER_16_238
*1145 FILLER_16_250
*1146 FILLER_16_253
*1147 FILLER_16_265
*1148 FILLER_16_27
*1149 FILLER_16_277
*1150 FILLER_16_289
*1151 FILLER_16_29
*1152 FILLER_16_3
*1153 FILLER_16_301
*1154 FILLER_16_307
*1155 FILLER_16_309
*1156 FILLER_16_321
*1157 FILLER_16_333
*1158 FILLER_16_337
*1159 FILLER_16_41
*1160 FILLER_16_53
*1161 FILLER_16_65
*1162 FILLER_16_77
*1163 FILLER_16_83
*1164 FILLER_16_85
*1165 FILLER_16_97
*1166 FILLER_17_105
*1167 FILLER_17_111
*1168 FILLER_17_113
*1169 FILLER_17_125
*1170 FILLER_17_137
*1171 FILLER_17_149
*1172 FILLER_17_15
*1173 FILLER_17_161
*1174 FILLER_17_167
*1175 FILLER_17_169
*1176 FILLER_17_178
*1177 FILLER_17_186
*1178 FILLER_17_197
*1179 FILLER_17_209
*1180 FILLER_17_221
*1181 FILLER_17_225
*1182 FILLER_17_237
*1183 FILLER_17_249
*1184 FILLER_17_261
*1185 FILLER_17_27
*1186 FILLER_17_273
*1187 FILLER_17_279
*1188 FILLER_17_281
*1189 FILLER_17_293
*1190 FILLER_17_3
*1191 FILLER_17_305
*1192 FILLER_17_317
*1193 FILLER_17_329
*1194 FILLER_17_335
*1195 FILLER_17_337
*1196 FILLER_17_39
*1197 FILLER_17_51
*1198 FILLER_17_55
*1199 FILLER_17_57
*1200 FILLER_17_69
*1201 FILLER_17_81
*1202 FILLER_17_93
*1203 FILLER_18_109
*1204 FILLER_18_121
*1205 FILLER_18_133
*1206 FILLER_18_139
*1207 FILLER_18_141
*1208 FILLER_18_15
*1209 FILLER_18_153
*1210 FILLER_18_157
*1211 FILLER_18_164
*1212 FILLER_18_173
*1213 FILLER_18_180
*1214 FILLER_18_192
*1215 FILLER_18_197
*1216 FILLER_18_206
*1217 FILLER_18_218
*1218 FILLER_18_230
*1219 FILLER_18_242
*1220 FILLER_18_250
*1221 FILLER_18_253
*1222 FILLER_18_265
*1223 FILLER_18_27
*1224 FILLER_18_277
*1225 FILLER_18_289
*1226 FILLER_18_29
*1227 FILLER_18_3
*1228 FILLER_18_301
*1229 FILLER_18_307
*1230 FILLER_18_309
*1231 FILLER_18_321
*1232 FILLER_18_333
*1233 FILLER_18_337
*1234 FILLER_18_41
*1235 FILLER_18_53
*1236 FILLER_18_65
*1237 FILLER_18_77
*1238 FILLER_18_83
*1239 FILLER_18_85
*1240 FILLER_18_97
*1241 FILLER_19_105
*1242 FILLER_19_111
*1243 FILLER_19_113
*1244 FILLER_19_125
*1245 FILLER_19_137
*1246 FILLER_19_149
*1247 FILLER_19_15
*1248 FILLER_19_157
*1249 FILLER_19_166
*1250 FILLER_19_169
*1251 FILLER_19_175
*1252 FILLER_19_184
*1253 FILLER_19_196
*1254 FILLER_19_208
*1255 FILLER_19_220
*1256 FILLER_19_225
*1257 FILLER_19_237
*1258 FILLER_19_249
*1259 FILLER_19_260
*1260 FILLER_19_27
*1261 FILLER_19_272
*1262 FILLER_19_281
*1263 FILLER_19_293
*1264 FILLER_19_3
*1265 FILLER_19_305
*1266 FILLER_19_317
*1267 FILLER_19_329
*1268 FILLER_19_335
*1269 FILLER_19_337
*1270 FILLER_19_39
*1271 FILLER_19_51
*1272 FILLER_19_55
*1273 FILLER_19_57
*1274 FILLER_19_69
*1275 FILLER_19_81
*1276 FILLER_19_93
*1277 FILLER_1_105
*1278 FILLER_1_111
*1279 FILLER_1_113
*1280 FILLER_1_125
*1281 FILLER_1_137
*1282 FILLER_1_149
*1283 FILLER_1_15
*1284 FILLER_1_161
*1285 FILLER_1_167
*1286 FILLER_1_169
*1287 FILLER_1_181
*1288 FILLER_1_193
*1289 FILLER_1_205
*1290 FILLER_1_217
*1291 FILLER_1_223
*1292 FILLER_1_225
*1293 FILLER_1_237
*1294 FILLER_1_249
*1295 FILLER_1_261
*1296 FILLER_1_27
*1297 FILLER_1_273
*1298 FILLER_1_279
*1299 FILLER_1_281
*1300 FILLER_1_293
*1301 FILLER_1_3
*1302 FILLER_1_305
*1303 FILLER_1_317
*1304 FILLER_1_329
*1305 FILLER_1_335
*1306 FILLER_1_337
*1307 FILLER_1_39
*1308 FILLER_1_51
*1309 FILLER_1_55
*1310 FILLER_1_57
*1311 FILLER_1_69
*1312 FILLER_1_81
*1313 FILLER_1_93
*1314 FILLER_20_109
*1315 FILLER_20_121
*1316 FILLER_20_133
*1317 FILLER_20_139
*1318 FILLER_20_141
*1319 FILLER_20_149
*1320 FILLER_20_15
*1321 FILLER_20_157
*1322 FILLER_20_169
*1323 FILLER_20_181
*1324 FILLER_20_185
*1325 FILLER_20_194
*1326 FILLER_20_197
*1327 FILLER_20_207
*1328 FILLER_20_219
*1329 FILLER_20_231
*1330 FILLER_20_243
*1331 FILLER_20_251
*1332 FILLER_20_253
*1333 FILLER_20_262
*1334 FILLER_20_269
*1335 FILLER_20_27
*1336 FILLER_20_278
*1337 FILLER_20_287
*1338 FILLER_20_29
*1339 FILLER_20_294
*1340 FILLER_20_3
*1341 FILLER_20_306
*1342 FILLER_20_309
*1343 FILLER_20_321
*1344 FILLER_20_333
*1345 FILLER_20_337
*1346 FILLER_20_41
*1347 FILLER_20_53
*1348 FILLER_20_65
*1349 FILLER_20_77
*1350 FILLER_20_83
*1351 FILLER_20_85
*1352 FILLER_20_97
*1353 FILLER_21_105
*1354 FILLER_21_111
*1355 FILLER_21_113
*1356 FILLER_21_125
*1357 FILLER_21_137
*1358 FILLER_21_149
*1359 FILLER_21_15
*1360 FILLER_21_166
*1361 FILLER_21_169
*1362 FILLER_21_174
*1363 FILLER_21_186
*1364 FILLER_21_199
*1365 FILLER_21_212
*1366 FILLER_21_225
*1367 FILLER_21_237
*1368 FILLER_21_249
*1369 FILLER_21_253
*1370 FILLER_21_261
*1371 FILLER_21_27
*1372 FILLER_21_274
*1373 FILLER_21_281
*1374 FILLER_21_290
*1375 FILLER_21_3
*1376 FILLER_21_300
*1377 FILLER_21_310
*1378 FILLER_21_317
*1379 FILLER_21_321
*1380 FILLER_21_325
*1381 FILLER_21_333
*1382 FILLER_21_337
*1383 FILLER_21_39
*1384 FILLER_21_51
*1385 FILLER_21_55
*1386 FILLER_21_57
*1387 FILLER_21_69
*1388 FILLER_21_81
*1389 FILLER_21_93
*1390 FILLER_22_109
*1391 FILLER_22_121
*1392 FILLER_22_133
*1393 FILLER_22_139
*1394 FILLER_22_141
*1395 FILLER_22_149
*1396 FILLER_22_15
*1397 FILLER_22_157
*1398 FILLER_22_164
*1399 FILLER_22_178
*1400 FILLER_22_184
*1401 FILLER_22_194
*1402 FILLER_22_197
*1403 FILLER_22_202
*1404 FILLER_22_222
*1405 FILLER_22_234
*1406 FILLER_22_246
*1407 FILLER_22_253
*1408 FILLER_22_258
*1409 FILLER_22_262
*1410 FILLER_22_27
*1411 FILLER_22_279
*1412 FILLER_22_29
*1413 FILLER_22_290
*1414 FILLER_22_299
*1415 FILLER_22_3
*1416 FILLER_22_306
*1417 FILLER_22_309
*1418 FILLER_22_316
*1419 FILLER_22_336
*1420 FILLER_22_41
*1421 FILLER_22_53
*1422 FILLER_22_65
*1423 FILLER_22_77
*1424 FILLER_22_83
*1425 FILLER_22_85
*1426 FILLER_22_97
*1427 FILLER_23_105
*1428 FILLER_23_111
*1429 FILLER_23_113
*1430 FILLER_23_125
*1431 FILLER_23_137
*1432 FILLER_23_149
*1433 FILLER_23_15
*1434 FILLER_23_159
*1435 FILLER_23_167
*1436 FILLER_23_169
*1437 FILLER_23_176
*1438 FILLER_23_182
*1439 FILLER_23_191
*1440 FILLER_23_200
*1441 FILLER_23_222
*1442 FILLER_23_225
*1443 FILLER_23_247
*1444 FILLER_23_267
*1445 FILLER_23_27
*1446 FILLER_23_277
*1447 FILLER_23_281
*1448 FILLER_23_299
*1449 FILLER_23_3
*1450 FILLER_23_319
*1451 FILLER_23_329
*1452 FILLER_23_335
*1453 FILLER_23_337
*1454 FILLER_23_39
*1455 FILLER_23_51
*1456 FILLER_23_55
*1457 FILLER_23_57
*1458 FILLER_23_69
*1459 FILLER_23_81
*1460 FILLER_23_93
*1461 FILLER_24_109
*1462 FILLER_24_121
*1463 FILLER_24_133
*1464 FILLER_24_139
*1465 FILLER_24_141
*1466 FILLER_24_15
*1467 FILLER_24_152
*1468 FILLER_24_178
*1469 FILLER_24_190
*1470 FILLER_24_197
*1471 FILLER_24_201
*1472 FILLER_24_205
*1473 FILLER_24_209
*1474 FILLER_24_226
*1475 FILLER_24_239
*1476 FILLER_24_251
*1477 FILLER_24_253
*1478 FILLER_24_261
*1479 FILLER_24_267
*1480 FILLER_24_27
*1481 FILLER_24_276
*1482 FILLER_24_280
*1483 FILLER_24_286
*1484 FILLER_24_29
*1485 FILLER_24_3
*1486 FILLER_24_306
*1487 FILLER_24_309
*1488 FILLER_24_316
*1489 FILLER_24_336
*1490 FILLER_24_41
*1491 FILLER_24_53
*1492 FILLER_24_65
*1493 FILLER_24_77
*1494 FILLER_24_83
*1495 FILLER_24_85
*1496 FILLER_24_97
*1497 FILLER_25_105
*1498 FILLER_25_111
*1499 FILLER_25_113
*1500 FILLER_25_125
*1501 FILLER_25_133
*1502 FILLER_25_137
*1503 FILLER_25_149
*1504 FILLER_25_15
*1505 FILLER_25_166
*1506 FILLER_25_169
*1507 FILLER_25_184
*1508 FILLER_25_193
*1509 FILLER_25_200
*1510 FILLER_25_212
*1511 FILLER_25_225
*1512 FILLER_25_233
*1513 FILLER_25_245
*1514 FILLER_25_253
*1515 FILLER_25_260
*1516 FILLER_25_27
*1517 FILLER_25_272
*1518 FILLER_25_281
*1519 FILLER_25_289
*1520 FILLER_25_295
*1521 FILLER_25_3
*1522 FILLER_25_307
*1523 FILLER_25_320
*1524 FILLER_25_332
*1525 FILLER_25_337
*1526 FILLER_25_39
*1527 FILLER_25_51
*1528 FILLER_25_55
*1529 FILLER_25_57
*1530 FILLER_25_69
*1531 FILLER_25_81
*1532 FILLER_25_93
*1533 FILLER_26_109
*1534 FILLER_26_121
*1535 FILLER_26_133
*1536 FILLER_26_139
*1537 FILLER_26_141
*1538 FILLER_26_15
*1539 FILLER_26_159
*1540 FILLER_26_167
*1541 FILLER_26_171
*1542 FILLER_26_194
*1543 FILLER_26_197
*1544 FILLER_26_212
*1545 FILLER_26_232
*1546 FILLER_26_240
*1547 FILLER_26_250
*1548 FILLER_26_253
*1549 FILLER_26_261
*1550 FILLER_26_27
*1551 FILLER_26_271
*1552 FILLER_26_283
*1553 FILLER_26_29
*1554 FILLER_26_291
*1555 FILLER_26_295
*1556 FILLER_26_3
*1557 FILLER_26_307
*1558 FILLER_26_309
*1559 FILLER_26_318
*1560 FILLER_26_330
*1561 FILLER_26_41
*1562 FILLER_26_53
*1563 FILLER_26_65
*1564 FILLER_26_77
*1565 FILLER_26_83
*1566 FILLER_26_85
*1567 FILLER_26_97
*1568 FILLER_27_105
*1569 FILLER_27_111
*1570 FILLER_27_113
*1571 FILLER_27_125
*1572 FILLER_27_137
*1573 FILLER_27_15
*1574 FILLER_27_161
*1575 FILLER_27_167
*1576 FILLER_27_169
*1577 FILLER_27_177
*1578 FILLER_27_186
*1579 FILLER_27_207
*1580 FILLER_27_213
*1581 FILLER_27_222
*1582 FILLER_27_225
*1583 FILLER_27_233
*1584 FILLER_27_237
*1585 FILLER_27_254
*1586 FILLER_27_27
*1587 FILLER_27_278
*1588 FILLER_27_281
*1589 FILLER_27_287
*1590 FILLER_27_3
*1591 FILLER_27_304
*1592 FILLER_27_312
*1593 FILLER_27_321
*1594 FILLER_27_329
*1595 FILLER_27_335
*1596 FILLER_27_337
*1597 FILLER_27_39
*1598 FILLER_27_51
*1599 FILLER_27_55
*1600 FILLER_27_57
*1601 FILLER_27_69
*1602 FILLER_27_81
*1603 FILLER_27_93
*1604 FILLER_28_109
*1605 FILLER_28_121
*1606 FILLER_28_133
*1607 FILLER_28_139
*1608 FILLER_28_141
*1609 FILLER_28_15
*1610 FILLER_28_153
*1611 FILLER_28_175
*1612 FILLER_28_186
*1613 FILLER_28_193
*1614 FILLER_28_197
*1615 FILLER_28_219
*1616 FILLER_28_232
*1617 FILLER_28_238
*1618 FILLER_28_242
*1619 FILLER_28_250
*1620 FILLER_28_253
*1621 FILLER_28_263
*1622 FILLER_28_27
*1623 FILLER_28_273
*1624 FILLER_28_285
*1625 FILLER_28_289
*1626 FILLER_28_29
*1627 FILLER_28_297
*1628 FILLER_28_3
*1629 FILLER_28_306
*1630 FILLER_28_309
*1631 FILLER_28_314
*1632 FILLER_28_334
*1633 FILLER_28_41
*1634 FILLER_28_53
*1635 FILLER_28_65
*1636 FILLER_28_77
*1637 FILLER_28_83
*1638 FILLER_28_85
*1639 FILLER_28_97
*1640 FILLER_29_105
*1641 FILLER_29_111
*1642 FILLER_29_113
*1643 FILLER_29_125
*1644 FILLER_29_145
*1645 FILLER_29_15
*1646 FILLER_29_158
*1647 FILLER_29_165
*1648 FILLER_29_169
*1649 FILLER_29_187
*1650 FILLER_29_196
*1651 FILLER_29_208
*1652 FILLER_29_220
*1653 FILLER_29_225
*1654 FILLER_29_235
*1655 FILLER_29_247
*1656 FILLER_29_254
*1657 FILLER_29_263
*1658 FILLER_29_27
*1659 FILLER_29_278
*1660 FILLER_29_281
*1661 FILLER_29_287
*1662 FILLER_29_299
*1663 FILLER_29_3
*1664 FILLER_29_310
*1665 FILLER_29_323
*1666 FILLER_29_335
*1667 FILLER_29_337
*1668 FILLER_29_39
*1669 FILLER_29_51
*1670 FILLER_29_55
*1671 FILLER_29_57
*1672 FILLER_29_69
*1673 FILLER_29_81
*1674 FILLER_29_93
*1675 FILLER_2_109
*1676 FILLER_2_121
*1677 FILLER_2_133
*1678 FILLER_2_139
*1679 FILLER_2_141
*1680 FILLER_2_15
*1681 FILLER_2_153
*1682 FILLER_2_165
*1683 FILLER_2_177
*1684 FILLER_2_189
*1685 FILLER_2_195