*SPEF "ieee 1481-1999"
*DESIGN "tt_um_moyes0_top_module"
*DATE "11:11:11 Fri 11 11, 1111"
*VENDOR "OpenRCX"
*PROGRAM "Parallel Extraction"
*VERSION "1.0"
*DESIGN_FLOW "NAME_SCOPE LOCAL" "PIN_CAP NONE"
*DIVIDER /
*DELIMITER :
*BUS_DELIMITER []
*T_UNIT 1 NS
*C_UNIT 1 PF
*R_UNIT 1 OHM
*L_UNIT 1 HENRY

*NAME_MAP
*1 clk
*2 ena
*3 rst_n
*4 ui_in[0]
*5 ui_in[1]
*6 ui_in[2]
*7 ui_in[3]
*8 ui_in[4]
*9 ui_in[5]
*10 ui_in[6]
*11 ui_in[7]
*12 uio_in[0]
*13 uio_in[1]
*14 uio_in[2]
*15 uio_in[3]
*16 uio_in[4]
*17 uio_in[5]
*18 uio_in[6]
*19 uio_in[7]
*20 net4
*21 net5
*22 net6
*23 net7
*24 net8
*25 net9
*26 net10
*27 net11
*28 net12
*29 net13
*30 net14
*31 net15
*32 net16
*33 net17
*34 net18
*35 net19
*36 uo_out[0]
*37 uo_out[1]
*38 uo_out[2]
*39 uo_out[3]
*40 uo_out[4]
*41 net20
*42 net21
*43 uo_out[7]
*46 ADR\[0\]
*47 ADR\[10\]
*48 ADR\[11\]
*49 ADR\[12\]
*50 ADR\[13\]
*51 ADR\[14\]
*52 ADR\[15\]
*53 ADR\[1\]
*54 ADR\[2\]
*55 ADR\[3\]
*56 ADR\[4\]
*57 ADR\[5\]
*58 ADR\[6\]
*59 ADR\[7\]
*60 ADR\[8\]
*61 ADR\[9\]
*62 BwasFFFF
*63 CPUphase\[0\]
*64 CPUphase\[1\]
*65 CPUphase\[2\]
*66 LEQ
*67 PCCarry
*68 PC\[0\]
*69 PC\[10\]
*70 PC\[11\]
*71 PC\[12\]
*72 PC\[13\]
*73 PC\[14\]
*74 PC\[15\]
*75 PC\[1\]
*76 PC\[2\]
*77 PC\[3\]
*78 PC\[4\]
*79 PC\[5\]
*80 PC\[6\]
*81 PC\[7\]
*82 PC\[8\]
*83 PC\[9\]
*84 TBorrow
*85 TMP\[10\]
*86 TMP\[11\]
*87 TMP\[12\]
*88 TMP\[13\]
*89 TMP\[14\]
*90 TMP\[15\]
*91 TMP\[1\]
*92 TMP\[2\]
*93 TMP\[3\]
*94 TMP\[4\]
*95 TMP\[5\]
*96 TMP\[6\]
*97 TMP\[7\]
*98 TMP\[8\]
*99 TMP\[9\]
*100 TZero
*101 UARTcount\[0\]
*102 UARTcount\[1\]
*103 UARTcount\[2\]
*104 UARTcount\[3\]
*105 UARTcount\[4\]
*106 UARTout
*107 _000_
*108 _001_
*109 _002_
*110 _003_
*111 _004_
*112 _005_
*113 _006_
*114 _007_
*115 _008_
*116 _009_
*117 _010_
*118 _011_
*119 _012_
*120 _013_
*121 _014_
*122 _015_
*123 _016_
*124 _017_
*125 _018_
*126 _019_
*127 _020_
*128 _021_
*129 _022_
*130 _023_
*131 _024_
*132 _025_
*133 _026_
*134 _027_
*135 _028_
*136 _029_
*137 _030_
*138 _031_
*139 _032_
*140 _033_
*141 _034_
*142 _035_
*143 _036_
*144 _037_
*145 _038_
*146 _039_
*147 _040_
*148 _041_
*149 _042_
*150 _043_
*151 _044_
*152 _045_
*153 _046_
*154 _047_
*155 _048_
*156 _049_
*157 _050_
*158 _051_
*159 _052_
*160 _053_
*161 _054_
*162 _055_
*163 _056_
*164 _057_
*165 _058_
*166 _059_
*167 _060_
*168 _061_
*169 _062_
*170 _063_
*171 _064_
*172 _065_
*173 _066_
*174 _067_
*175 _068_
*176 _069_
*177 _070_
*178 _071_
*179 _072_
*180 _073_
*181 _074_
*182 _075_
*183 _076_
*184 _077_
*185 _078_
*186 _079_
*187 _080_
*188 _081_
*189 _082_
*190 _083_
*191 _084_
*192 _085_
*193 _086_
*194 _087_
*195 _088_
*196 _089_
*197 _090_
*198 _091_
*199 _092_
*200 _093_
*201 _094_
*202 _095_
*203 _096_
*204 _097_
*205 _098_
*206 _099_
*207 _100_
*208 _101_
*209 _102_
*210 _103_
*211 _104_
*212 _105_
*213 _106_
*214 _107_
*215 _108_
*216 _109_
*217 _110_
*218 _111_
*219 _112_
*220 _113_
*221 _114_
*222 _115_
*223 _116_
*224 _117_
*225 _118_
*226 _119_
*227 _120_
*228 _121_
*229 _122_
*230 _123_
*231 _124_
*232 _125_
*233 _126_
*234 _127_
*235 _128_
*236 _129_
*237 _130_
*238 _131_
*239 _132_
*240 _133_
*241 _134_
*242 _135_
*243 _136_
*244 _137_
*245 _138_
*246 _139_
*247 _140_
*248 _141_
*249 _142_
*250 _143_
*251 _144_
*252 _145_
*253 _146_
*254 _147_
*255 _148_
*256 _149_
*257 _150_
*258 _151_
*259 _152_
*260 _153_
*261 _154_
*262 _155_
*263 _156_
*264 _157_
*265 _158_
*266 _159_
*267 _160_
*268 _161_
*269 _162_
*270 _163_
*271 _164_
*272 _165_
*273 _166_
*274 _167_
*275 _168_
*276 _169_
*277 _170_
*278 _171_
*279 _172_
*280 _173_
*281 _174_
*282 _175_
*283 _176_
*284 _177_
*285 _178_
*286 _179_
*287 _180_
*288 _181_
*289 _182_
*290 _183_
*291 _184_
*292 _185_
*293 _186_
*294 _187_
*295 _188_
*296 _189_
*297 _190_
*298 _191_
*299 _192_
*300 _193_
*301 _194_
*302 _195_
*303 _196_
*304 _197_
*305 _198_
*306 _199_
*307 _200_
*308 _201_
*309 _202_
*310 _203_
*311 _204_
*312 _205_
*313 _206_
*314 _207_
*315 _208_
*316 _209_
*317 _210_
*318 _211_
*319 _212_
*320 _213_
*321 _214_
*322 _215_
*323 _216_
*324 _217_
*325 _218_
*326 _219_
*327 _220_
*328 _221_
*329 _222_
*330 _223_
*331 _224_
*332 _225_
*333 _226_
*334 _227_
*335 _228_
*336 _229_
*337 _230_
*338 _231_
*339 _232_
*340 _233_
*341 clknet_0_clk
*342 clknet_3_0__leaf_clk
*343 clknet_3_1__leaf_clk
*344 clknet_3_2__leaf_clk
*345 clknet_3_3__leaf_clk
*346 clknet_3_4__leaf_clk
*347 clknet_3_5__leaf_clk
*348 clknet_3_6__leaf_clk
*349 clknet_3_7__leaf_clk
*350 net1
*351 net2
*352 net3
*353 out7
*354 spi\.CS0
*355 spi\.CS1
*356 spi\.CSreg
*357 spi\.Data
*358 spi\.EndOfPhase
*359 spi\.MOSI
*360 spi\.PrepOutput
*361 spi\.PresetCarry
*362 spi\.SPICLK
*363 spi\.SPIphase\[0\]
*364 spi\.SPIphase\[1\]
*365 spi\.SPIphase\[2\]
*366 spi\.SPIphase\[3\]
*367 spi\.SPIphase\[4\]
*368 spi\.SPIphase\[5\]
*369 spi\.SPIphase\[6\]
*370 spi\.ShiftAddr
*371 spi\.ShiftDataRead
*372 spi\.ShiftDataWrite
*373 FILLER_0_109
*374 FILLER_0_113
*375 FILLER_0_125
*376 FILLER_0_137
*377 FILLER_0_141
*378 FILLER_0_15
*379 FILLER_0_153
*380 FILLER_0_165
*381 FILLER_0_169
*382 FILLER_0_181
*383 FILLER_0_193
*384 FILLER_0_197
*385 FILLER_0_209
*386 FILLER_0_221
*387 FILLER_0_225
*388 FILLER_0_237
*389 FILLER_0_249
*390 FILLER_0_253
*391 FILLER_0_265
*392 FILLER_0_27
*393 FILLER_0_277
*394 FILLER_0_281
*395 FILLER_0_29
*396 FILLER_0_293
*397 FILLER_0_3
*398 FILLER_0_305
*399 FILLER_0_309
*400 FILLER_0_321
*401 FILLER_0_333
*402 FILLER_0_337
*403 FILLER_0_41
*404 FILLER_0_53
*405 FILLER_0_57
*406 FILLER_0_69
*407 FILLER_0_81
*408 FILLER_0_85
*409 FILLER_0_97
*410 FILLER_10_109
*411 FILLER_10_121
*412 FILLER_10_133
*413 FILLER_10_139
*414 FILLER_10_141
*415 FILLER_10_15
*416 FILLER_10_153
*417 FILLER_10_165
*418 FILLER_10_177
*419 FILLER_10_189
*420 FILLER_10_195
*421 FILLER_10_197
*422 FILLER_10_209
*423 FILLER_10_221
*424 FILLER_10_233
*425 FILLER_10_245
*426 FILLER_10_251
*427 FILLER_10_253
*428 FILLER_10_265
*429 FILLER_10_27
*430 FILLER_10_277
*431 FILLER_10_289
*432 FILLER_10_29
*433 FILLER_10_3
*434 FILLER_10_301
*435 FILLER_10_307
*436 FILLER_10_309
*437 FILLER_10_321
*438 FILLER_10_333
*439 FILLER_10_337
*440 FILLER_10_41
*441 FILLER_10_53
*442 FILLER_10_65
*443 FILLER_10_77
*444 FILLER_10_83
*445 FILLER_10_85
*446 FILLER_10_97
*447 FILLER_11_105
*448 FILLER_11_111
*449 FILLER_11_113
*450 FILLER_11_125
*451 FILLER_11_137
*452 FILLER_11_149
*453 FILLER_11_15
*454 FILLER_11_161
*455 FILLER_11_167
*456 FILLER_11_169
*457 FILLER_11_181
*458 FILLER_11_193
*459 FILLER_11_205
*460 FILLER_11_217
*461 FILLER_11_223
*462 FILLER_11_225
*463 FILLER_11_237
*464 FILLER_11_249
*465 FILLER_11_261
*466 FILLER_11_27
*467 FILLER_11_273
*468 FILLER_11_279
*469 FILLER_11_281
*470 FILLER_11_293
*471 FILLER_11_3
*472 FILLER_11_305
*473 FILLER_11_317
*474 FILLER_11_329
*475 FILLER_11_335
*476 FILLER_11_337
*477 FILLER_11_39
*478 FILLER_11_51
*479 FILLER_11_55
*480 FILLER_11_57
*481 FILLER_11_69
*482 FILLER_11_81
*483 FILLER_11_93
*484 FILLER_12_109
*485 FILLER_12_121
*486 FILLER_12_133
*487 FILLER_12_139
*488 FILLER_12_141
*489 FILLER_12_15
*490 FILLER_12_153
*491 FILLER_12_165
*492 FILLER_12_177
*493 FILLER_12_189
*494 FILLER_12_195
*495 FILLER_12_197
*496 FILLER_12_209
*497 FILLER_12_221
*498 FILLER_12_233
*499 FILLER_12_245
*500 FILLER_12_251
*501 FILLER_12_253
*502 FILLER_12_265
*503 FILLER_12_27
*504 FILLER_12_277
*505 FILLER_12_289
*506 FILLER_12_29
*507 FILLER_12_3
*508 FILLER_12_301
*509 FILLER_12_307
*510 FILLER_12_309
*511 FILLER_12_321
*512 FILLER_12_333
*513 FILLER_12_337
*514 FILLER_12_41
*515 FILLER_12_53
*516 FILLER_12_65
*517 FILLER_12_77
*518 FILLER_12_83
*519 FILLER_12_85
*520 FILLER_12_97
*521 FILLER_13_105
*522 FILLER_13_111
*523 FILLER_13_113
*524 FILLER_13_125
*525 FILLER_13_137
*526 FILLER_13_149
*527 FILLER_13_15
*528 FILLER_13_161
*529 FILLER_13_167
*530 FILLER_13_169
*531 FILLER_13_180
*532 FILLER_13_192
*533 FILLER_13_204
*534 FILLER_13_216
*535 FILLER_13_225
*536 FILLER_13_237
*537 FILLER_13_249
*538 FILLER_13_261
*539 FILLER_13_27
*540 FILLER_13_273
*541 FILLER_13_279
*542 FILLER_13_281
*543 FILLER_13_293
*544 FILLER_13_3
*545 FILLER_13_305
*546 FILLER_13_317
*547 FILLER_13_329
*548 FILLER_13_335
*549 FILLER_13_337
*550 FILLER_13_39
*551 FILLER_13_51
*552 FILLER_13_55
*553 FILLER_13_57
*554 FILLER_13_69
*555 FILLER_13_81
*556 FILLER_13_93
*557 FILLER_14_109
*558 FILLER_14_121
*559 FILLER_14_128
*560 FILLER_14_135
*561 FILLER_14_139
*562 FILLER_14_141
*563 FILLER_14_15
*564 FILLER_14_153
*565 FILLER_14_157
*566 FILLER_14_174
*567 FILLER_14_187
*568 FILLER_14_195
*569 FILLER_14_197
*570 FILLER_14_209
*571 FILLER_14_221
*572 FILLER_14_232
*573 FILLER_14_244
*574 FILLER_14_253
*575 FILLER_14_265
*576 FILLER_14_27
*577 FILLER_14_277
*578 FILLER_14_289
*579 FILLER_14_29
*580 FILLER_14_3
*581 FILLER_14_301
*582 FILLER_14_307
*583 FILLER_14_309
*584 FILLER_14_321
*585 FILLER_14_333
*586 FILLER_14_337
*587 FILLER_14_41
*588 FILLER_14_53
*589 FILLER_14_65
*590 FILLER_14_77
*591 FILLER_14_83
*592 FILLER_14_85
*593 FILLER_14_97
*594 FILLER_15_106
*595 FILLER_15_113
*596 FILLER_15_121
*597 FILLER_15_138
*598 FILLER_15_15
*599 FILLER_15_166
*600 FILLER_15_169
*601 FILLER_15_177
*602 FILLER_15_194
*603 FILLER_15_214
*604 FILLER_15_221
*605 FILLER_15_225
*606 FILLER_15_244
*607 FILLER_15_256
*608 FILLER_15_268
*609 FILLER_15_27
*610 FILLER_15_281
*611 FILLER_15_293
*612 FILLER_15_3
*613 FILLER_15_305
*614 FILLER_15_317
*615 FILLER_15_329
*616 FILLER_15_335
*617 FILLER_15_337
*618 FILLER_15_39
*619 FILLER_15_51
*620 FILLER_15_55
*621 FILLER_15_57
*622 FILLER_15_69
*623 FILLER_15_81
*624 FILLER_15_93
*625 FILLER_16_100
*626 FILLER_16_112
*627 FILLER_16_120
*628 FILLER_16_137
*629 FILLER_16_141
*630 FILLER_16_15
*631 FILLER_16_152
*632 FILLER_16_178
*633 FILLER_16_190
*634 FILLER_16_197
*635 FILLER_16_208
*636 FILLER_16_234
*637 FILLER_16_241
*638 FILLER_16_249
*639 FILLER_16_253
*640 FILLER_16_269
*641 FILLER_16_27
*642 FILLER_16_281
*643 FILLER_16_289
*644 FILLER_16_29
*645 FILLER_16_296
*646 FILLER_16_3
*647 FILLER_16_309
*648 FILLER_16_321
*649 FILLER_16_333
*650 FILLER_16_337
*651 FILLER_16_41
*652 FILLER_16_53
*653 FILLER_16_65
*654 FILLER_16_77
*655 FILLER_16_83
*656 FILLER_16_85
*657 FILLER_16_92
*658 FILLER_17_109
*659 FILLER_17_113
*660 FILLER_17_125
*661 FILLER_17_149
*662 FILLER_17_15
*663 FILLER_17_156
*664 FILLER_17_162
*665 FILLER_17_166
*666 FILLER_17_169
*667 FILLER_17_180
*668 FILLER_17_186
*669 FILLER_17_190
*670 FILLER_17_198
*671 FILLER_17_208
*672 FILLER_17_212
*673 FILLER_17_222
*674 FILLER_17_225
*675 FILLER_17_243
*676 FILLER_17_27
*677 FILLER_17_271
*678 FILLER_17_279
*679 FILLER_17_281
*680 FILLER_17_289
*681 FILLER_17_3
*682 FILLER_17_307
*683 FILLER_17_316
*684 FILLER_17_328
*685 FILLER_17_337
*686 FILLER_17_39
*687 FILLER_17_51
*688 FILLER_17_55
*689 FILLER_17_57
*690 FILLER_17_69
*691 FILLER_17_89
*692 FILLER_18_103
*693 FILLER_18_110
*694 FILLER_18_138
*695 FILLER_18_141
*696 FILLER_18_15
*697 FILLER_18_152
*698 FILLER_18_174
*699 FILLER_18_187
*700 FILLER_18_195
*701 FILLER_18_197
*702 FILLER_18_205
*703 FILLER_18_211
*704 FILLER_18_231
*705 FILLER_18_244
*706 FILLER_18_253
*707 FILLER_18_265
*708 FILLER_18_27
*709 FILLER_18_274
*710 FILLER_18_29
*711 FILLER_18_294
*712 FILLER_18_3
*713 FILLER_18_306
*714 FILLER_18_309
*715 FILLER_18_327
*716 FILLER_18_335
*717 FILLER_18_41
*718 FILLER_18_53
*719 FILLER_18_65
*720 FILLER_18_77
*721 FILLER_18_82
*722 FILLER_18_85
*723 FILLER_19_100
*724 FILLER_19_113
*725 FILLER_19_121
*726 FILLER_19_126
*727 FILLER_19_146
*728 FILLER_19_15
*729 FILLER_19_159
*730 FILLER_19_166
*731 FILLER_19_169
*732 FILLER_19_187
*733 FILLER_19_200
*734 FILLER_19_212
*735 FILLER_19_216
*736 FILLER_19_225
*737 FILLER_19_236
*738 FILLER_19_248
*739 FILLER_19_267
*740 FILLER_19_27
*741 FILLER_19_276
*742 FILLER_19_281
*743 FILLER_19_291
*744 FILLER_19_297
*745 FILLER_19_3
*746 FILLER_19_306
*747 FILLER_19_318
*748 FILLER_19_327
*749 FILLER_19_335
*750 FILLER_19_337
*751 FILLER_19_39
*752 FILLER_19_51
*753 FILLER_19_55
*754 FILLER_19_57
*755 FILLER_19_69
*756 FILLER_19_77
*757 FILLER_19_87
*758 FILLER_1_105
*759 FILLER_1_111
*760 FILLER_1_113
*761 FILLER_1_125
*762 FILLER_1_137
*763 FILLER_1_149
*764 FILLER_1_15
*765 FILLER_1_161
*766 FILLER_1_167
*767 FILLER_1_169
*768 FILLER_1_181
*769 FILLER_1_193
*770 FILLER_1_205
*771 FILLER_1_217
*772 FILLER_1_223
*773 FILLER_1_225
*774 FILLER_1_237
*775 FILLER_1_249
*776 FILLER_1_261
*777 FILLER_1_27
*778 FILLER_1_273
*779 FILLER_1_279
*780 FILLER_1_281
*781 FILLER_1_293
*782 FILLER_1_3
*783 FILLER_1_305
*784 FILLER_1_317
*785 FILLER_1_329
*786 FILLER_1_335
*787 FILLER_1_337
*788 FILLER_1_39
*789 FILLER_1_51
*790 FILLER_1_55
*791 FILLER_1_57
*792 FILLER_1_69
*793 FILLER_1_81
*794 FILLER_1_93
*795 FILLER_20_103
*796 FILLER_20_116
*797 FILLER_20_128
*798 FILLER_20_137
*799 FILLER_20_141
*800 FILLER_20_15
*801 FILLER_20_152
*802 FILLER_20_163
*803 FILLER_20_170
*804 FILLER_20_190
*805 FILLER_20_197
*806 FILLER_20_205
*807 FILLER_20_224
*808 FILLER_20_237
*809 FILLER_20_250
*810 FILLER_20_253
*811 FILLER_20_27
*812 FILLER_20_271
*813 FILLER_20_280
*814 FILLER_20_29
*815 FILLER_20_292
*816 FILLER_20_3
*817 FILLER_20_300
*818 FILLER_20_305
*819 FILLER_20_309
*820 FILLER_20_333
*821 FILLER_20_337
*822 FILLER_20_41
*823 FILLER_20_53
*824 FILLER_20_65
*825 FILLER_20_77
*826 FILLER_20_82
*827 FILLER_20_85
*828 FILLER_21_110
*829 FILLER_21_113
*830 FILLER_21_118
*831 FILLER_21_146
*832 FILLER_21_15
*833 FILLER_21_158
*834 FILLER_21_166
*835 FILLER_21_169
*836 FILLER_21_188
*837 FILLER_21_195
*838 FILLER_21_207
*839 FILLER_21_212
*840 FILLER_21_222
*841 FILLER_21_225
*842 FILLER_21_236
*843 FILLER_21_262
*844 FILLER_21_27
*845 FILLER_21_274
*846 FILLER_21_281
*847 FILLER_21_289
*848 FILLER_21_299
*849 FILLER_21_3
*850 FILLER_21_319
*851 FILLER_21_328
*852 FILLER_21_337
*853 FILLER_21_39
*854 FILLER_21_51
*855 FILLER_21_55
*856 FILLER_21_57
*857 FILLER_21_69
*858 FILLER_21_81
*859 FILLER_21_93
*860 FILLER_22_107
*861 FILLER_22_114
*862 FILLER_22_126
*863 FILLER_22_132
*864 FILLER_22_136
*865 FILLER_22_141
*866 FILLER_22_15
*867 FILLER_22_152
*868 FILLER_22_164
*869 FILLER_22_176
*870 FILLER_22_188
*871 FILLER_22_197
*872 FILLER_22_205
*873 FILLER_22_209
*874 FILLER_22_229
*875 FILLER_22_249
*876 FILLER_22_253
*877 FILLER_22_27
*878 FILLER_22_271
*879 FILLER_22_283
*880 FILLER_22_289
*881 FILLER_22_29
*882 FILLER_22_3
*883 FILLER_22_306
*884 FILLER_22_309
*885 FILLER_22_319
*886 FILLER_22_328
*887 FILLER_22_336
*888 FILLER_22_41
*889 FILLER_22_53
*890 FILLER_22_65
*891 FILLER_22_77
*892 FILLER_22_82
*893 FILLER_22_85
*894 FILLER_23_107
*895 FILLER_23_111
*896 FILLER_23_113
*897 FILLER_23_141
*898 FILLER_23_149
*899 FILLER_23_15
*900 FILLER_23_166
*901 FILLER_23_169
*902 FILLER_23_177
*903 FILLER_23_192
*904 FILLER_23_200
*905 FILLER_23_212
*906 FILLER_23_222
*907 FILLER_23_225
*908 FILLER_23_236
*909 FILLER_23_244
*910 FILLER_23_252
*911 FILLER_23_27
*912 FILLER_23_272
*913 FILLER_23_281
*914 FILLER_23_287
*915 FILLER_23_3
*916 FILLER_23_304
*917 FILLER_23_313
*918 FILLER_23_333
*919 FILLER_23_337
*920 FILLER_23_39
*921 FILLER_23_51
*922 FILLER_23_55
*923 FILLER_23_57
*924 FILLER_23_69
*925 FILLER_23_77
*926 FILLER_23_94
*927 FILLER_24_111
*928 FILLER_24_119
*929 FILLER_24_138
*930 FILLER_24_141
*931 FILLER_24_149
*932 FILLER_24_15
*933 FILLER_24_157
*934 FILLER_24_174
*935 FILLER_24_194
*936 FILLER_24_197
*937 FILLER_24_201
*938 FILLER_24_205
*939 FILLER_24_225
*940 FILLER_24_238
*941 FILLER_24_245
*942 FILLER_24_251
*943 FILLER_24_253
*944 FILLER_24_257
*945 FILLER_24_266
*946 FILLER_24_27
*947 FILLER_24_276
*948 FILLER_24_29
*949 FILLER_24_296
*950 FILLER_24_3
*951 FILLER_24_305
*952 FILLER_24_309
*953 FILLER_24_325
*954 FILLER_24_334
*955 FILLER_24_41
*956 FILLER_24_53
*957 FILLER_24_65
*958 FILLER_24_77
*959 FILLER_24_82
*960 FILLER_24_85
*961 FILLER_24_98
*962 FILLER_25_105
*963 FILLER_25_111
*964 FILLER_25_113
*965 FILLER_25_122
*966 FILLER_25_134
*967 FILLER_25_143
*968 FILLER_25_15
*969 FILLER_25_160
*970 FILLER_25_169
*971 FILLER_25_180
*972 FILLER_25_189
*973 FILLER_25_196
*974 FILLER_25_222
*975 FILLER_25_225
*976 FILLER_25_236
*977 FILLER_25_247
*978 FILLER_25_251
*979 FILLER_25_261
*980 FILLER_25_27
*981 FILLER_25_274
*982 FILLER_25_281
*983 FILLER_25_290
*984 FILLER_25_296
*985 FILLER_25_3
*986 FILLER_25_305
*987 FILLER_25_319
*988 FILLER_25_331
*989 FILLER_25_335
*990 FILLER_25_337
*991 FILLER_25_39
*992 FILLER_25_51
*993 FILLER_25_55
*994 FILLER_25_57
*995 FILLER_25_69
*996 FILLER_25_73
*997 FILLER_25_90
*998 FILLER_26_103
*999 FILLER_26_115
*1000 FILLER_26_122
*1001 FILLER_26_134
*1002 FILLER_26_141
*1003 FILLER_26_147
*1004 FILLER_26_15
*1005 FILLER_26_154
*1006 FILLER_26_178
*1007 FILLER_26_188
*1008 FILLER_26_197
*1009 FILLER_26_208
*1010 FILLER_26_234
*1011 FILLER_26_242
*1012 FILLER_26_250
*1013 FILLER_26_253
*1014 FILLER_26_258
*1015 FILLER_26_27
*1016 FILLER_26_278
*1017 FILLER_26_29
*1018 FILLER_26_3
*1019 FILLER_26_306
*1020 FILLER_26_309
*1021 FILLER_26_333
*1022 FILLER_26_337
*1023 FILLER_26_41
*1024 FILLER_26_53
*1025 FILLER_26_65
*1026 FILLER_26_77
*1027 FILLER_26_82
*1028 FILLER_26_85
*1029 FILLER_27_109
*1030 FILLER_27_113
*1031 FILLER_27_125
*1032 FILLER_27_149
*1033 FILLER_27_15
*1034 FILLER_27_153
*1035 FILLER_27_157
*1036 FILLER_27_166
*1037 FILLER_27_169
*1038 FILLER_27_179
*1039 FILLER_27_191
*1040 FILLER_27_200
*1041 FILLER_27_222
*1042 FILLER_27_225
*1043 FILLER_27_234
*1044 FILLER_27_262
*1045 FILLER_27_27
*1046 FILLER_27_273
*1047 FILLER_27_279
*1048 FILLER_27_281
*1049 FILLER_27_290
*1050 FILLER_27_3
*1051 FILLER_27_302
*1052 FILLER_27_311
*1053 FILLER_27_315
*1054 FILLER_27_332
*1055 FILLER_27_337
*1056 FILLER_27_39
*1057 FILLER_27_51
*1058 FILLER_27_55
*1059 FILLER_27_57
*1060 FILLER_27_69
*1061 FILLER_27_88
*1062 FILLER_27_92
*1063 FILLER_28_103
*1064 FILLER_28_115
*1065 FILLER_28_126
*1066 FILLER_28_138
*1067 FILLER_28_141
*1068 FILLER_28_15
*1069 FILLER_28_150
*1070 FILLER_28_159
*1071 FILLER_28_168
*1072 FILLER_28_188
*1073 FILLER_28_197
*1074 FILLER_28_208
*1075 FILLER_28_216
*1076 FILLER_28_233
*1077 FILLER_28_243
*1078 FILLER_28_250
*1079 FILLER_28_253
*1080 FILLER_28_27
*1081 FILLER_28_273
*1082 FILLER_28_283
*1083 FILLER_28_287
*1084 FILLER_28_29
*1085 FILLER_28_291
*1086 FILLER_28_3
*1087 FILLER_28_303
*1088 FILLER_28_307
*1089 FILLER_28_309
*1090 FILLER_28_317
*1091 FILLER_28_334
*1092 FILLER_28_41
*1093 FILLER_28_53
*1094 FILLER_28_65
*1095 FILLER_28_77
*1096 FILLER_28_83
*1097 FILLER_28_85
*1098 FILLER_28_96
*1099 FILLER_29_105
*1100 FILLER_29_111
*1101 FILLER_29_113
*1102 FILLER_29_119
*1103 FILLER_29_136
*1104 FILLER_29_142
*1105 FILLER_29_147
*1106 FILLER_29_15
*1107 FILLER_29_154
*1108 FILLER_29_166
*1109 FILLER_29_169
*1110 FILLER_29_193
*1111 FILLER_29_199
*1112 FILLER_29_207
*1113 FILLER_29_222
*1114 FILLER_29_225
*1115 FILLER_29_230
*1116 FILLER_29_250
*1117 FILLER_29_27
*1118 FILLER_29_270
*1119 FILLER_29_278
*1120 FILLER_29_281
*1121 FILLER_29_285
*1122 FILLER_29_3
*1123 FILLER_29_303
*1124 FILLER_29_307
*1125 FILLER_29_324
*1126 FILLER_29_333
*1127 FILLER_29_337
*1128 FILLER_29_39
*1129 FILLER_29_51
*1130 FILLER_29_55
*1131 FILLER_29_57
*1132 FILLER_29_69
*1133 FILLER_29_93
*1134 FILLER_2_109
*1135 FILLER_2_121
*1136 FILLER_2_133
*1137 FILLER_2_139
*1138 FILLER_2_141
*1139 FILLER_2_15
*1140 FILLER_2_153
*1141 FILLER_2_165
*1142 FILLER_2_177
*1143 FILLER_2_189
*1144 FILLER_2_195
*1145 FILLER_2_197
*1146 FILLER_2_209
*1147 FILLER_2_221
*1148 FILLER_2_233
*1149 FILLER_2_245
*1150 FILLER_2_251
*1151 FILLER_2_253
*1152 FILLER_2_265
*1153 FILLER_2_27
*1154 FILLER_2_277
*1155 FILLER_2_289
*1156 FILLER_2_29
*1157 FILLER_2_3
*1158 FILLER_2_301
*1159 FILLER_2_307
*1160 FILLER_2_309
*1161 FILLER_2_321
*1162 FILLER_2_333
*1163 FILLER_2_337
*1164 FILLER_2_41
*1165 FILLER_2_53
*1166 FILLER_2_65
*1167 FILLER_2_77
*1168 FILLER_2_83
*1169 FILLER_2_85
*1170 FILLER_2_97
*1171 FILLER_30_106
*1172 FILLER_30_114
*1173 FILLER_30_121
*1174 FILLER_30_129
*1175 FILLER_30_133
*1176 FILLER_30_139
*1177 FILLER_30_141
*1178 FILLER_30_15
*1179 FILLER_30_159
*1180 FILLER_30_168
*1181 FILLER_30_176
*1182 FILLER_30_187
*1183 FILLER_30_195
*1184 FILLER_30_197
*1185 FILLER_30_204
*1186 FILLER_30_213
*1187 FILLER_30_225
*1188 FILLER_30_236
*1189 FILLER_30_246
*1190 FILLER_30_253
*1191 FILLER_30_257
*1192 FILLER_30_266
*1193 FILLER_30_27
*1194 FILLER_30_278
*1195 FILLER_30_289
*1196 FILLER_30_29
*1197 FILLER_30_298
*1198 FILLER_30_3
*1199 FILLER_30_306
*1200 FILLER_30_309
*1201 FILLER_30_333
*1202 FILLER_30_337
*1203 FILLER_30_41
*1204 FILLER_30_53
*1205 FILLER_30_71
*1206 FILLER_30_82
*1207 FILLER_30_85
*1208 FILLER_30_95
*1209 FILLER_31_105
*1210 FILLER_31_111
*1211 FILLER_31_113
*1212 FILLER_31_123
*1213 FILLER_31_135
*1214 FILLER_31_147
*1215 FILLER_31_15
*1216 FILLER_31_166
*1217 FILLER_31_169
*1218 FILLER_31_181
*1219 FILLER_31_188
*1220 FILLER_31_200
*1221 FILLER_31_208
*1222 FILLER_31_219
*1223 FILLER_31_223
*1224 FILLER_31_225
*1225 FILLER_31_234
*1226 FILLER_31_244
*1227 FILLER_31_254
*1228 FILLER_31_263
*1229 FILLER_31_27
*1230 FILLER_31_276
*1231 FILLER_31_281
*1232 FILLER_31_292
*1233 FILLER_31_296
*1234 FILLER_31_3
*1235 FILLER_31_300
*1236 FILLER_31_308
*1237 FILLER_31_317
*1238 FILLER_31_324
*1239 FILLER_31_331
*1240 FILLER_31_335
*1241 FILLER_31_337
*1242 FILLER_31_39
*1243 FILLER_31_51
*1244 FILLER_31_55
*1245 FILLER_31_57
*1246 FILLER_31_69
*1247 FILLER_31_77
*1248 FILLER_31_90
*1249 FILLER_31_98
*1250 FILLER_32_105
*1251 FILLER_32_117
*1252 FILLER_32_136
*1253 FILLER_32_141
*1254 FILLER_32_149
*1255 FILLER_32_15
*1256 FILLER_32_155
*1257 FILLER_32_162
*1258 FILLER_32_178
*1259 FILLER_32_189
*1260 FILLER_32_195
*1261 FILLER_32_197
*1262 FILLER_32_210
*1263 FILLER_32_224
*1264 FILLER_32_234
*1265 FILLER_32_250
*1266 FILLER_32_253
*1267 FILLER_32_261
*1268 FILLER_32_27
*1269 FILLER_32_272
*1270 FILLER_32_282
*1271 FILLER_32_29
*1272 FILLER_32_290
*1273 FILLER_32_297
*1274 FILLER_32_3
*1275 FILLER_32_306
*1276 FILLER_32_309
*1277 FILLER_32_318
*1278 FILLER_32_326
*1279 FILLER_32_333
*1280 FILLER_32_337
*1281 FILLER_32_41
*1282 FILLER_32_53
*1283 FILLER_32_65
*1284 FILLER_32_69
*1285 FILLER_32_73
*1286 FILLER_32_82
*1287 FILLER_32_85
*1288 FILLER_32_94
*1289 FILLER_33_105
*1290 FILLER_33_111
*1291 FILLER_33_113
*1292 FILLER_33_125
*1293 FILLER_33_137
*1294 FILLER_33_145
*1295 FILLER_33_149
*1296 FILLER_33_15
*1297 FILLER_33_166
*1298 FILLER_33_169
*1299 FILLER_33_181
*1300 FILLER_33_188
*1301 FILLER_33_192
*1302 FILLER_33_198
*1303 FILLER_33_215
*1304 FILLER_33_222
*1305 FILLER_33_225
*1306 FILLER_33_235
*1307 FILLER_33_241
*1308 FILLER_33_258
*1309 FILLER_33_268
*1310 FILLER_33_27
*1311 FILLER_33_278
*1312 FILLER_33_281
*1313 FILLER_33_288
*1314 FILLER_33_294
*1315 FILLER_33_3
*1316 FILLER_33_300
*1317 FILLER_33_313
*1318 FILLER_33_333
*1319 FILLER_33_337
*1320 FILLER_33_39
*1321 FILLER_33_51
*1322 FILLER_33_55
*1323 FILLER_33_57
*1324 FILLER_33_69
*1325 FILLER_33_78
*1326 FILLER_33_98
*1327 FILLER_34_119
*1328 FILLER_34_131
*1329 FILLER_34_138
*1330 FILLER_34_141
*1331 FILLER_34_147
*1332 FILLER_34_155
*1333 FILLER_34_173
*1334 FILLER_34_193
*1335 FILLER_34_197
*1336 FILLER_34_20
*1337 FILLER_34_217
*1338 FILLER_34_237
*1339 FILLER_34_243
*1340 FILLER_34_250
*1341 FILLER_34_253
*1342 FILLER_34_275
*1343 FILLER_34_282
*1344 FILLER_34_29
*1345 FILLER_34_3
*1346 FILLER_34_306
*1347 FILLER_34_309
*1348 FILLER_34_333
*1349 FILLER_34_337
*1350 FILLER_34_41
*1351 FILLER_34_56
*1352 FILLER_34_64
*1353 FILLER_34_8
*1354 FILLER_34_82
*1355 FILLER_34_85
*1356 FILLER_34_90
*1357 FILLER_34_97
*1358 FILLER_35_103
*1359 FILLER_35_110
*1360 FILLER_35_113
*1361 FILLER_35_12
*1362 FILLER_35_120
*1363 FILLER_35_124
*1364 FILLER_35_128
*1365 FILLER_35_134
*1366 FILLER_35_138
*1367 FILLER_35_141
*1368 FILLER_35_147
*1369 FILLER_35_151
*1370 FILLER_35_158
*1371 FILLER_35_166
*1372 FILLER_35_169
*1373 FILLER_35_175
*1374 FILLER_35_181
*1375 FILLER_35_185
*1376 FILLER_35_19
*1377 FILLER_35_193
*1378 FILLER_35_197
*1379 FILLER_35_205
*1380 FILLER_35_209
*1381 FILLER_35_216
*1382 FILLER_35_225
*1383 FILLER_35_237
*1384 FILLER_35_245
*1385 FILLER_35_250
*1386 FILLER_35_253
*1387 FILLER_35_26
*1388 FILLER_35_268
*1389 FILLER_35_278
*1390 FILLER_35_281
*1391 FILLER_35_29
*1392 FILLER_35_291
*1393 FILLER_35_3
*1394 FILLER_35_300
*1395 FILLER_35_309
*1396 FILLER_35_313
*1397 FILLER_35_318
*1398 FILLER_35_334
*1399 FILLER_35_337
*1400 FILLER_35_40
*1401 FILLER_35_47
*1402 FILLER_35_54
*1403 FILLER_35_57
*1404 FILLER_35_66
*1405 FILLER_35_73
*1406 FILLER_35_81
*1407 FILLER_35_85
*1408 FILLER_35_96
*1409 FILLER_3_105
*1410 FILLER_3_111
*1411 FILLER_3_113
*1412 FILLER_3_125
*1413 FILLER_3_137
*1414 FILLER_3_149
*1415 FILLER_3_15
*1416 FILLER_3_161
*1417 FILLER_3_167
*1418 FILLER_3_169
*1419 FILLER_3_181
*1420 FILLER_3_193
*1421 FILLER_3_205
*1422 FILLER_3_217
*1423 FILLER_3_223
*1424 FILLER_3_225
*1425 FILLER_3_237
*1426 FILLER_3_249
*1427 FILLER_3_261
*1428 FILLER_3_27
*1429 FILLER_3_273
*1430 FILLER_3_279
*1431 FILLER_3_281
*1432 FILLER_3_293
*1433 FILLER_3_3
*1434 FILLER_3_305
*1435 FILLER_3_317
*1436 FILLER_3_329
*1437 FILLER_3_335
*1438 FILLER_3_337
*1439 FILLER_3_39
*1440 FILLER_3_51
*1441 FILLER_3_55
*1442 FILLER_3_57
*1443 FILLER_3_69
*1444 FILLER_3_81
*1445 FILLER_3_93
*1446 FILLER_4_109
*1447 FILLER_4_121
*1448 FILLER_4_133
*1449 FILLER_4_139
*1450 FILLER_4_141
*1451 FILLER_4_15
*1452 FILLER_4_153
*1453 FILLER_4_165
*1454 FILLER_4_177
*1455 FILLER_4_189
*1456 FILLER_4_195
*1457 FILLER_4_197
*1458 FILLER_4_209
*1459 FILLER_4_221
*1460 FILLER_4_233
*1461 FILLER_4_245
*1462 FILLER_4_251
*1463 FILLER_4_253
*1464 FILLER_4_265
*1465 FILLER_4_27
*1466 FILLER_4_277
*1467 FILLER_4_289
*1468 FILLER_4_29
*1469 FILLER_4_3
*1470 FILLER_4_301
*1471 FILLER_4_307
*1472 FILLER_4_309
*1473 FILLER_4_321
*1474 FILLER_4_333
*1475 FILLER_4_337
*1476 FILLER_4_41
*1477 FILLER_4_53
*1478 FILLER_4_65
*1479 FILLER_4_77
*1480 FILLER_4_83
*1481 FILLER_4_85
*1482 FILLER_4_97
*1483 FILLER_5_105
*1484 FILLER_5_111
*1485 FILLER_5_113
*1486 FILLER_5_125
*1487 FILLER_5_137
*1488 FILLER_5_149
*1489 FILLER_5_15
*1490 FILLER_5_161
*1491 FILLER_5_167
*1492 FILLER_5_169
*1493 FILLER_5_181
*1494 FILLER_5_193
*1495 FILLER_5_205
*1496 FILLER_5_217
*1497 FILLER_5_223
*1498 FILLER_5_225
*1499 FILLER_5_237
*1500 FILLER_5_249
*1501 FILLER_5_261
*1502 FILLER_5_27
*1503 FILLER_5_273
*1504 FILLER_5_279
*1505 FILLER_5_281
*1506 FILLER_5_293
*1507 FILLER_5_3
*1508 FILLER_5_305
*1509 FILLER_5_317
*1510 FILLER_5_329
*1511 FILLER_5_335
*1512 FILLER_5_337
*1513 FILLER_5_39
*1514 FILLER_5_51
*1515 FILLER_5_55
*1516 FILLER_5_57
*1517 FILLER_5_69
*1518 FILLER_5_81
*1519 FILLER_5_93
*1520 FILLER_6_109
*1521 FILLER_6_121
*1522 FILLER_6_133
*1523 FILLER_6_139
*1524 FILLER_6_141
*1525 FILLER_6_15
*1526 FILLER_6_153
*1527 FILLER_6_165
*1528 FILLER_6_177
*1529 FILLER_6_189
*1530 FILLER_6_195
*1531 FILLER_6_197
*1532 FILLER_6_209
*1533 FILLER_6_221
*1534 FILLER_6_233
*1535 FILLER_6_245
*1536 FILLER_6_251
*1537 FILLER_6_253
*1538 FILLER_6_265
*1539 FILLER_6_27
*1540 FILLER_6_277
*1541 FILLER_6_289
*1542 FILLER_6_29
*1543 FILLER_6_3
*1544 FILLER_6_301
*1545 FILLER_6_307
*1546 FILLER_6_309
*1547 FILLER_6_321
*1548 FILLER_6_333
*1549 FILLER_6_337
*1550 FILLER_6_41
*1551 FILLER_6_53
*1552 FILLER_6_65
*1553 FILLER_6_77
*1554 FILLER_6_83
*1555 FILLER_6_85
*1556 FILLER_6_97
*1557 FILLER_7_105
*1558 FILLER_7_111
*1559 FILLER_7_113
*1560 FILLER_7_125
*1561 FILLER_7_137
*1562 FILLER_7_149
*1563 FILLER_7_15
*1564 FILLER_7_161
*1565 FILLER_7_167
*1566 FILLER_7_169
*1567 FILLER_7_181
*1568 FILLER_7_193
*1569 FILLER_7_205
*1570 FILLER_7_217
*1571 FILLER_7_223
*1572 FILLER_7_225
*1573 FILLER_7_237
*1574 FILLER_7_249
*1575 FILLER_7_261
*1576 FILLER_7_27
*1577 FILLER_7_273
*1578 FILLER_7_279
*1579 FILLER_7_281
*1580 FILLER_7_293
*1581 FILLER_7_3
*1582 FILLER_7_305
*1583 FILLER_7_317
*1584 FILLER_7_329
*1585 FILLER_7_335
*1586 FILLER_7_337
*1587 FILLER_7_39
*1588 FILLER_7_51
*1589 FILLER_7_55
*1590 FILLER_7_57
*1591 FILLER_7_69
*1592 FILLER_7_81
*1593 FILLER_7_93
*1594 FILLER_8_109
*1595 FILLER_8_121
*1596 FILLER_8_133
*1597 FILLER_8_139
*1598 FILLER_8_141
*1599 FILLER_8_15
*1600 FILLER_8_153
*1601 FILLER_8_165
*1602 FILLER_8_177
*1603 FILLER_8_189
*1604 FILLER_8_195
*1605 FILLER_8_197
*1606 FILLER_8_209
*1607 FILLER_8_221
*1608 FILLER_8_233
*1609 FILLER_8_245
*1610 FILLER_8_251
*1611 FILLER_8_253
*1612 FILLER_8_265
*1613 FILLER_8_27
*1614 FILLER_8_277
*1615 FILLER_8_289
*1616 FILLER_8_29
*1617 FILLER_8_3
*1618 FILLER_8_301
*1619 FILLER_8_307
*1620 FILLER_8_309
*1621 FILLER_8_321
*1622 FILLER_8_333
*1623 FILLER_8_337
*1624 FILLER_8_41
*1625 FILLER_8_53
*1626 FILLER_8_65
*1627 FILLER_8_77
*1628 FILLER_8_83
*1629 FILLER_8_85
*1630 FILLER_8_97
*1631 FILLER_9_105
*1632 FILLER_9_111
*1633 FILLER_9_113
*1634 FILLER_9_125
*1635 FILLER_9_137
*1636 FILLER_9_149
*1637 FILLER_9_15
*1638 FILLER_9_161
*1639 FILLER_9_167
*1640 FILLER_9_169
*1641 FILLER_9_181
*1642 FILLER_9_193
*1643 FILLER_9_205
*1644 FILLER_9_217
*1645 FILLER_9_223
*1646 FILLER_9_225
*1647 FILLER_9_237
*1648 FILLER_9_249
*1649 FILLER_9_261
*1650 FILLER_9_27
*1651 FILLER_9_273
*1652 FILLER_9_279
*1653 FILLER_9_281
*1654 FILLER_9_293
*1655 FILLER_9_3
*1656 FILLER_9_305
*1657 FILLER_9_317
*1658 FILLER_9_329
*1659 FILLER_9_335
*1660 FILLER_9_337
*1661 FILLER_9_39
*1662 FILLER_9_51
*1663 FILLER_9_55
*1664 FILLER_9_57
*1665 FILLER_9_69
*1666 FILLER_9_81
*1667 FILLER_9_93
*1668 PHY_0
*1669 PHY_1
*1670 PHY_10
*1671 PHY_11
*1672 PHY_12
*1673 PHY_13
*1674 PHY_14
*1675 PHY_15
*1676 PHY_16
*1677 PHY_17
*1678 PHY_18
*1679 PHY_19
*1680 PHY_2
*1681 PHY_20
*1682 PHY_21
*1683 PHY_22
*1684 PHY_23
*1685 PHY_24
*1686 PHY_25
*1687 PHY_26
*1688 PHY_27
*1689 PHY_28
*1690 PHY_29
*1691 PHY_3
*1692 PHY_30
*1693 PHY_31
*1694 PHY_32
*1695 PHY_33
*1696 PHY_34
*1697 PHY_35
*1698 PHY_36
*1699 PHY_37
*1700 PHY_38
*1701 PHY_39
*1702 PHY_4
*1703 PHY_40
*1704 PHY_41
*1705 PHY_42
*1706 PHY_43
*1707 PHY_44
*1708 PHY_45
*1709 PHY_46
*1710 PHY_47
*1711 PHY_48
*1712 PHY_49
*1713 PHY_5
*1714 PHY_50
*1715 PHY_51
*1716 PHY_52