*SPEF "ieee 1481-1999"
*DESIGN "tt_um_tomkeddie_a"
*DATE "11:11:11 Fri 11 11, 1111"
*VENDOR "OpenRCX"
*PROGRAM "Parallel Extraction"
*VERSION "1.0"
*DESIGN_FLOW "NAME_SCOPE LOCAL" "PIN_CAP NONE"
*DIVIDER /
*DELIMITER :
*BUS_DELIMITER []
*T_UNIT 1 NS
*C_UNIT 1 PF
*R_UNIT 1 OHM
*L_UNIT 1 HENRY

*NAME_MAP
*1 clk
*2 ena
*3 rst_n
*4 ui_in[0]
*5 ui_in[1]
*6 ui_in[2]
*7 ui_in[3]
*8 ui_in[4]
*9 ui_in[5]
*10 ui_in[6]
*11 ui_in[7]
*12 uio_in[0]
*13 uio_in[1]
*14 uio_in[2]
*15 uio_in[3]
*16 uio_in[4]
*17 uio_in[5]
*18 uio_in[6]
*19 uio_in[7]
*20 net14
*21 net15
*22 net16
*23 net4
*24 net5
*25 net6
*26 net7
*27 net8
*28 uio_out[0]
*29 uio_out[1]
*30 uio_out[2]
*31 net9
*32 net10
*33 net11
*34 net12
*35 net13
*36 uo_out[0]
*37 uo_out[1]
*38 uo_out[2]
*39 uo_out[3]
*40 uo_out[4]
*41 uo_out[5]
*42 uo_out[6]
*43 uo_out[7]
*46 _0000_
*47 _0001_
*48 _0002_
*49 _0003_
*50 _0004_
*51 _0005_
*52 _0006_
*53 _0007_
*54 _0008_
*55 _0009_
*56 _0010_
*57 _0011_
*58 _0012_
*59 _0013_
*60 _0014_
*61 _0015_
*62 _0016_
*63 _0017_
*64 _0018_
*65 _0019_
*66 _0020_
*67 _0021_
*68 _0022_
*69 _0023_
*70 _0024_
*71 _0025_
*72 _0026_
*73 _0027_
*74 _0028_
*75 _0029_
*76 _0030_
*77 _0031_
*78 _0032_
*79 _0033_
*80 _0034_
*81 _0035_
*82 _0036_
*83 _0037_
*84 _0038_
*85 _0039_
*86 _0040_
*87 _0041_
*88 _0042_
*89 _0043_
*90 _0044_
*91 _0045_
*92 _0046_
*93 _0047_
*94 _0048_
*95 _0049_
*96 _0050_
*97 _0051_
*98 _0052_
*99 _0053_
*100 _0054_
*101 _0055_
*102 _0056_
*103 _0057_
*104 _0058_
*105 _0059_
*106 _0060_
*107 _0061_
*108 _0062_
*109 _0063_
*110 _0064_
*111 _0065_
*112 _0066_
*113 _0067_
*114 _0068_
*115 _0069_
*116 _0070_
*117 _0071_
*118 _0072_
*119 _0073_
*120 _0074_
*121 _0075_
*122 _0076_
*123 _0077_
*124 _0078_
*125 _0079_
*126 _0080_
*127 _0081_
*128 _0082_
*129 _0083_
*130 _0084_
*131 _0085_
*132 _0086_
*133 _0087_
*134 _0088_
*135 _0089_
*136 _0090_
*137 _0091_
*138 _0092_
*139 _0093_
*140 _0094_
*141 _0095_
*142 _0096_
*143 _0097_
*144 _0098_
*145 _0099_
*146 _0100_
*147 _0101_
*148 _0102_
*149 _0103_
*150 _0104_
*151 _0105_
*152 _0106_
*153 _0107_
*154 _0108_
*155 _0109_
*156 _0110_
*157 _0111_
*158 _0112_
*159 _0113_
*160 _0114_
*161 _0115_
*162 _0116_
*163 _0117_
*164 _0118_
*165 _0119_
*166 _0120_
*167 _0121_
*168 _0122_
*169 _0123_
*170 _0124_
*171 _0125_
*172 _0126_
*173 _0127_
*174 _0128_
*175 _0129_
*176 _0130_
*177 _0131_
*178 _0132_
*179 _0133_
*180 _0134_
*181 _0135_
*182 _0136_
*183 _0137_
*184 _0138_
*185 _0139_
*186 _0140_
*187 _0141_
*188 _0142_
*189 _0143_
*190 _0144_
*191 _0145_
*192 _0146_
*193 _0147_
*194 _0148_
*195 _0149_
*196 _0150_
*197 _0151_
*198 _0152_
*199 _0153_
*200 _0154_
*201 _0155_
*202 _0156_
*203 _0157_
*204 _0158_
*205 _0159_
*206 _0160_
*207 _0161_
*208 _0162_
*209 _0163_
*210 _0164_
*211 _0165_
*212 _0166_
*213 _0167_
*214 _0168_
*215 _0169_
*216 _0170_
*217 _0171_
*218 _0172_
*219 _0173_
*220 _0174_
*221 _0175_
*222 _0176_
*223 _0177_
*224 _0178_
*225 _0179_
*226 _0180_
*227 _0181_
*228 _0182_
*229 _0183_
*230 _0184_
*231 _0185_
*232 _0186_
*233 _0187_
*234 _0188_
*235 _0189_
*236 _0190_
*237 _0191_
*238 _0192_
*239 _0193_
*240 _0194_
*241 _0195_
*242 _0196_
*243 _0197_
*244 _0198_
*245 _0199_
*246 _0200_
*247 _0201_
*248 _0202_
*249 _0203_
*250 _0204_
*251 _0205_
*252 _0206_
*253 _0207_
*254 _0208_
*255 _0209_
*256 _0210_
*257 _0211_
*258 _0212_
*259 _0213_
*260 _0214_
*261 _0215_
*262 _0216_
*263 _0217_
*264 _0218_
*265 _0219_
*266 _0220_
*267 _0221_
*268 _0222_
*269 _0223_
*270 _0224_
*271 _0225_
*272 _0226_
*273 _0227_
*274 _0228_
*275 _0229_
*276 _0230_
*277 _0231_
*278 _0232_
*279 _0233_
*280 _0234_
*281 _0235_
*282 _0236_
*283 _0237_
*284 _0238_
*285 _0239_
*286 _0240_
*287 _0241_
*288 _0242_
*289 _0243_
*290 _0244_
*291 _0245_
*292 _0246_
*293 _0247_
*294 _0248_
*295 _0249_
*296 _0250_
*297 _0251_
*298 _0252_
*299 _0253_
*300 _0254_
*301 _0255_
*302 _0256_
*303 _0257_
*304 _0258_
*305 _0259_
*306 _0260_
*307 _0261_
*308 _0262_
*309 _0263_
*310 _0264_
*311 _0265_
*312 _0266_
*313 _0267_
*314 _0268_
*315 _0269_
*316 _0270_
*317 _0271_
*318 _0272_
*319 _0273_
*320 _0274_
*321 _0275_
*322 _0276_
*323 _0277_
*324 _0278_
*325 _0279_
*326 _0280_
*327 _0281_
*328 _0282_
*329 _0283_
*330 _0284_
*331 _0285_
*332 _0286_
*333 _0287_
*334 _0288_
*335 _0289_
*336 _0290_
*337 _0291_
*338 _0292_
*339 _0293_
*340 _0294_
*341 _0295_
*342 _0296_
*343 _0297_
*344 _0298_
*345 _0299_
*346 _0300_
*347 _0301_
*348 _0302_
*349 _0303_
*350 _0304_
*351 _0305_
*352 _0306_
*353 _0307_
*354 _0308_
*355 _0309_
*356 _0310_
*357 _0311_
*358 _0312_
*359 _0313_
*360 _0314_
*361 _0315_
*362 _0316_
*363 _0317_
*364 _0318_
*365 _0319_
*366 _0320_
*367 _0321_
*368 _0322_
*369 _0323_
*370 _0324_
*371 _0325_
*372 _0326_
*373 _0327_
*374 _0328_
*375 _0329_
*376 _0330_
*377 _0331_
*378 _0332_
*379 _0333_
*380 _0334_
*381 _0335_
*382 _0336_
*383 _0337_
*384 _0338_
*385 _0339_
*386 _0340_
*387 _0341_
*388 _0342_
*389 _0343_
*390 _0344_
*391 _0345_
*392 _0346_
*393 _0347_
*394 _0348_
*395 _0349_
*396 _0350_
*397 _0351_
*398 _0352_
*399 _0353_
*400 _0354_
*401 _0355_
*402 _0356_
*403 _0357_
*404 _0358_
*405 _0359_
*406 _0360_
*407 _0361_
*408 _0362_
*409 _0363_
*410 _0364_
*411 _0365_
*412 _0366_
*413 _0367_
*414 _0368_
*415 _0369_
*416 _0370_
*417 _0371_
*418 _0372_
*419 _0373_
*420 _0374_
*421 _0375_
*422 _0376_
*423 _0377_
*424 _0378_
*425 _0379_
*426 _0380_
*427 _0381_
*428 _0382_
*429 _0383_
*430 _0384_
*431 _0385_
*432 _0386_
*433 _0387_
*434 _0388_
*435 _0389_
*436 _0390_
*437 _0391_
*438 _0392_
*439 _0393_
*440 _0394_
*441 _0395_
*442 _0396_
*443 _0397_
*444 _0398_
*445 _0399_
*446 _0400_
*447 _0401_
*448 _0402_
*449 _0403_
*450 _0404_
*451 _0405_
*452 _0406_
*453 _0407_
*454 _0408_
*455 _0409_
*456 _0410_
*457 _0411_
*458 _0412_
*459 _0413_
*460 _0414_
*461 _0415_
*462 _0416_
*463 _0417_
*464 _0418_
*465 _0419_
*466 _0420_
*467 _0421_
*468 _0422_
*469 _0423_
*470 _0424_
*471 _0425_
*472 _0426_
*473 _0427_
*474 _0428_
*475 _0429_
*476 _0430_
*477 _0431_
*478 _0432_
*479 _0433_
*480 _0434_
*481 _0435_
*482 _0436_
*483 _0437_
*484 _0438_
*485 _0439_
*486 _0440_
*487 _0441_
*488 _0442_
*489 _0443_
*490 _0444_
*491 _0445_
*492 _0446_
*493 _0447_
*494 _0448_
*495 _0449_
*496 _0450_
*497 _0451_
*498 _0452_
*499 _0453_
*500 _0454_
*501 _0455_
*502 _0456_
*503 _0457_
*504 _0458_
*505 _0459_
*506 _0460_
*507 _0461_
*508 _0462_
*509 _0463_
*510 _0464_
*511 _0465_
*512 _0466_
*513 _0467_
*514 _0468_
*515 _0469_
*516 _0470_
*517 _0471_
*518 _0472_
*519 _0473_
*520 _0474_
*521 _0475_
*522 _0476_
*523 _0477_
*524 _0478_
*525 _0479_
*526 _0480_
*527 _0481_
*528 _0482_
*529 _0483_
*530 _0484_
*531 _0485_
*532 _0486_
*533 _0487_
*534 _0488_
*535 _0489_
*536 _0490_
*537 _0491_
*538 _0492_
*539 _0493_
*540 _0494_
*541 _0495_
*542 _0496_
*543 _0497_
*544 _0498_
*545 _0499_
*546 _0500_
*547 _0501_
*548 _0502_
*549 _0503_
*550 _0504_
*551 _0505_
*552 _0506_
*553 _0507_
*554 _0508_
*555 _0509_
*556 _0510_
*557 _0511_
*558 _0512_
*559 _0513_
*560 _0514_
*561 _0515_
*562 _0516_
*563 _0517_
*564 _0518_
*565 _0519_
*566 _0520_
*567 _0521_
*568 _0522_
*569 _0523_
*570 _0524_
*571 _0525_
*572 _0526_
*573 _0527_
*574 _0528_
*575 _0529_
*576 _0530_
*577 _0531_
*578 _0532_
*579 _0533_
*580 _0534_
*581 _0535_
*582 _0536_
*583 _0537_
*584 _0538_
*585 _0539_
*586 _0540_
*587 _0541_
*588 _0542_
*589 _0543_
*590 _0544_
*591 _0545_
*592 _0546_
*593 _0547_
*594 _0548_
*595 _0549_
*596 _0550_
*597 _0551_
*598 _0552_
*599 _0553_
*600 _0554_
*601 _0555_
*602 _0556_
*603 _0557_
*604 _0558_
*605 _0559_
*606 _0560_
*607 _0561_
*608 _0562_
*609 _0563_
*610 _0564_
*611 _0565_
*612 _0566_
*613 _0567_
*614 _0568_
*615 _0569_
*616 _0570_
*617 _0571_
*618 _0572_
*619 _0573_
*620 _0574_
*621 _0575_
*622 _0576_
*623 _0577_
*624 _0578_
*625 _0579_
*626 _0580_
*627 _0581_
*628 _0582_
*629 _0583_
*630 _0584_
*631 _0585_
*632 _0586_
*633 _0587_
*634 _0588_
*635 _0589_
*636 _0590_
*637 _0591_
*638 _0592_
*639 _0593_
*640 _0594_
*641 _0595_
*642 _0596_
*643 _0597_
*644 _0598_
*645 _0599_
*646 _0600_
*647 _0601_
*648 _0602_
*649 _0603_
*650 _0604_
*651 _0605_
*652 _0606_
*653 _0607_
*654 _0608_
*655 _0609_
*656 _0610_
*657 _0611_
*658 _0612_
*659 _0613_
*660 _0614_
*661 _0615_
*662 _0616_
*663 _0617_
*664 _0618_
*665 _0619_
*666 _0620_
*667 _0621_
*668 _0622_
*669 _0623_
*670 _0624_
*671 _0625_
*672 _0626_
*673 _0627_
*674 _0628_
*675 _0629_
*676 _0630_
*677 _0631_
*678 _0632_
*679 _0633_
*680 _0634_
*681 _0635_
*682 _0636_
*683 _0637_
*684 _0638_
*685 _0639_
*686 _0640_
*687 _0641_
*688 _0642_
*689 _0643_
*690 _0644_
*691 _0645_
*692 _0646_
*693 _0647_
*694 _0648_
*695 _0649_
*696 _0650_
*697 _0651_
*698 _0652_
*699 _0653_
*700 _0654_
*701 _0655_
*702 _0656_
*703 _0657_
*704 _0658_
*705 _0659_
*706 _0660_
*707 _0661_
*708 _0662_
*709 _0663_
*710 _0664_
*711 _0665_
*712 _0666_
*713 _0667_
*714 _0668_
*715 _0669_
*716 _0670_
*717 _0671_
*718 _0672_
*719 _0673_
*720 _0674_
*721 _0675_
*722 _0676_
*723 _0677_
*724 _0678_
*725 _0679_
*726 _0680_
*727 _0681_
*728 _0682_
*729 _0683_
*730 _0684_
*731 _0685_
*732 _0686_
*733 _0687_
*734 _0688_
*735 _0689_
*736 _0690_
*737 _0691_
*738 _0692_
*739 _0693_
*740 _0694_
*741 _0695_
*742 _0696_
*743 _0697_
*744 _0698_
*745 _0699_
*746 _0700_
*747 _0701_
*748 _0702_
*749 _0703_
*750 _0704_
*751 _0705_
*752 _0706_
*753 _0707_
*754 _0708_
*755 _0709_
*756 _0710_
*757 _0711_
*758 _0712_
*759 _0713_
*760 _0714_
*761 _0715_
*762 _0716_
*763 _0717_
*764 _0718_
*765 _0719_
*766 _0720_
*767 _0721_
*768 _0722_
*769 _0723_
*770 _0724_
*771 _0725_
*772 _0726_
*773 _0727_
*774 _0728_
*775 _0729_
*776 _0730_
*777 _0731_
*778 _0732_
*779 _0733_
*780 _0734_
*781 _0735_
*782 _0736_
*783 _0737_
*784 _0738_
*785 _0739_
*786 _0740_
*787 _0741_
*788 _0742_
*789 _0743_
*790 _0744_
*791 _0745_
*792 _0746_
*793 _0747_
*794 _0748_
*795 _0749_
*796 _0750_
*797 _0751_
*798 _0752_
*799 _0753_
*800 _0754_
*801 _0755_
*802 _0756_
*803 _0757_
*804 _0758_
*805 _0759_
*806 _0760_
*807 _0761_
*808 _0762_
*809 _0763_
*810 _0764_
*811 _0765_
*812 _0766_
*813 _0767_
*814 _0768_
*815 _0769_
*816 _0770_
*817 _0771_
*818 _0772_
*819 _0773_
*820 _0774_
*821 _0775_
*822 _0776_
*823 _0777_
*824 _0778_
*825 _0779_
*826 _0780_
*827 _0781_
*828 _0782_
*829 _0783_
*830 _0784_
*831 _0785_
*832 _0786_
*833 _0787_
*834 _0788_
*835 _0789_
*836 _0790_
*837 _0791_
*838 _0792_
*839 _0793_
*840 _0794_
*841 _0795_
*842 _0796_
*843 _0797_
*844 _0798_
*845 _0799_
*846 _0800_
*847 _0801_
*848 _0802_
*849 _0803_
*850 _0804_
*851 _0805_
*852 _0806_
*853 _0807_
*854 _0808_
*855 _0809_
*856 _0810_
*857 _0811_
*858 _0812_
*859 _0813_
*860 _0814_
*861 _0815_
*862 _0816_
*863 _0817_
*864 _0818_
*865 _0819_
*866 _0820_
*867 _0821_
*868 _0822_
*869 _0823_
*870 _0824_
*871 _0825_
*872 _0826_
*873 _0827_
*874 _0828_
*875 _0829_
*876 _0830_
*877 _0831_
*878 _0832_
*879 _0833_
*880 _0834_
*881 _0835_
*882 _0836_
*883 _0837_
*884 _0838_
*885 _0839_
*886 _0840_
*887 _0841_
*888 _0842_
*889 _0843_
*890 _0844_
*891 _0845_
*892 _0846_
*893 _0847_
*894 _0848_
*895 _0849_
*896 _0850_
*897 _0851_
*898 _0852_
*899 _0853_
*900 _0854_
*901 _0855_
*902 _0856_
*903 _0857_
*904 _0858_
*905 _0859_
*906 _0860_
*907 _0861_
*908 _0862_
*909 _0863_
*910 _0864_
*911 _0865_
*912 _0866_
*913 _0867_
*914 _0868_
*915 _0869_
*916 _0870_
*917 _0871_
*918 _0872_
*919 _0873_
*920 _0874_
*921 _0875_
*922 _0876_
*923 _0877_
*924 _0878_
*925 _0879_
*926 _0880_
*927 _0881_
*928 _0882_
*929 _0883_
*930 _0884_
*931 _0885_
*932 _0886_
*933 _0887_
*934 _0888_
*935 _0889_
*936 _0890_
*937 _0891_
*938 _0892_
*939 _0893_
*940 _0894_
*941 _0895_
*942 _0896_
*943 _0897_
*944 _0898_
*945 _0899_
*946 _0900_
*947 _0901_
*948 _0902_
*949 _0903_
*950 _0904_
*951 _0905_
*952 _0906_
*953 _0907_
*954 _0908_
*955 _0909_
*956 _0910_
*957 _0911_
*958 _0912_
*959 _0913_
*960 _0914_
*961 _0915_
*962 _0916_
*963 _0917_
*964 _0918_
*965 _0919_
*966 _0920_
*967 _0921_
*968 _0922_
*969 _0923_
*970 _0924_
*971 _0925_
*972 _0926_
*973 _0927_
*974 _0928_
*975 _0929_
*976 _0930_
*977 _0931_
*978 _0932_
*979 _0933_
*980 _0934_
*981 _0935_
*982 _0936_
*983 _0937_
*984 _0938_
*985 _0939_
*986 _0940_
*987 _0941_
*988 _0942_
*989 _0943_
*990 _0944_
*991 _0945_
*992 _0946_
*993 _0947_
*994 _0948_
*995 _0949_
*996 _0950_
*997 _0951_
*998 _0952_
*999 _0953_
*1000 _0954_
*1001 _0955_
*1002 _0956_
*1003 _0957_
*1004 _0958_
*1005 _0959_
*1006 _0960_
*1007 _0961_
*1008 _0962_
*1009 _0963_
*1010 _0964_
*1011 _0965_
*1012 _0966_
*1013 _0967_
*1014 _0968_
*1015 _0969_
*1016 _0970_
*1017 _0971_
*1018 _0972_
*1019 _0973_
*1020 _0974_
*1021 _0975_
*1022 _0976_
*1023 _0977_
*1024 _0978_
*1025 _0979_
*1026 _0980_
*1027 _0981_
*1028 _0982_
*1029 _0983_
*1030 _0984_
*1031 _0985_
*1032 _0986_
*1033 _0987_
*1034 _0988_
*1035 _0989_
*1036 _0990_
*1037 _0991_
*1038 _0992_
*1039 _0993_
*1040 _0994_
*1041 _0995_
*1042 _0996_
*1043 _0997_
*1044 _0998_
*1045 _0999_
*1046 _1000_
*1047 _1001_
*1048 _1002_
*1049 _1003_
*1050 _1004_
*1051 _1005_
*1052 _1006_
*1053 _1007_
*1054 _1008_
*1055 _1009_
*1056 _1010_
*1057 _1011_
*1058 _1012_
*1059 _1013_
*1060 _1014_
*1061 _1015_
*1062 _1016_
*1063 _1017_
*1064 _1018_
*1065 _1019_
*1066 _1020_
*1067 _1021_
*1068 _1022_
*1069 _1023_
*1070 _1024_
*1071 _1025_
*1072 _1026_
*1073 _1027_
*1074 _1028_
*1075 _1029_
*1076 _1030_
*1077 _1031_
*1078 _1032_
*1079 _1033_
*1080 _1034_
*1081 _1035_
*1082 _1036_
*1083 _1037_
*1084 _1038_
*1085 _1039_
*1086 _1040_
*1087 _1041_
*1088 _1042_
*1089 _1043_
*1090 _1044_
*1091 _1045_
*1092 _1046_
*1093 _1047_
*1094 _1048_
*1095 _1049_
*1096 _1050_
*1097 _1051_
*1098 _1052_
*1099 _1053_
*1100 _1054_
*1101 _1055_
*1102 _1056_
*1103 _1057_
*1104 _1058_
*1105 _1059_
*1106 _1060_
*1107 _1061_
*1108 _1062_
*1109 _1063_
*1110 _1064_
*1111 _1065_
*1112 _1066_
*1113 _1067_
*1114 _1068_
*1115 _1069_
*1116 _1070_
*1117 _1071_
*1118 _1072_
*1119 _1073_
*1120 _1074_
*1121 _1075_
*1122 _1076_
*1123 _1077_
*1124 _1078_
*1125 _1079_
*1126 _1080_
*1127 _1081_
*1128 _1082_
*1129 _1083_
*1130 _1084_
*1131 _1085_
*1132 _1086_
*1133 _1087_
*1134 _1088_
*1135 _1089_
*1136 _1090_
*1137 _1091_
*1138 _1092_
*1139 _1093_
*1140 _1094_
*1141 _1095_
*1142 _1096_
*1143 _1097_
*1144 _1098_
*1145 _1099_
*1146 _1100_
*1147 _1101_
*1148 _1102_
*1149 _1103_
*1150 _1104_
*1151 _1105_
*1152 _1106_
*1153 _1107_
*1154 _1108_
*1155 _1109_
*1156 _1110_
*1157 _1111_
*1158 _1112_
*1159 _1113_
*1160 _1114_
*1161 _1115_
*1162 _1116_
*1163 _1117_
*1164 _1118_
*1165 _1119_
*1166 _1120_
*1167 _1121_
*1168 _1122_
*1169 _1123_
*1170 _1124_
*1171 _1125_
*1172 _1126_
*1173 _1127_
*1174 _1128_
*1175 _1129_
*1176 _1130_
*1177 _1131_
*1178 _1132_
*1179 _1133_
*1180 _1134_
*1181 _1135_
*1182 _1136_
*1183 _1137_
*1184 _1138_
*1185 _1139_
*1186 _1140_
*1187 _1141_
*1188 _1142_
*1189 _1143_
*1190 _1144_
*1191 _1145_
*1192 _1146_
*1193 _1147_
*1194 _1148_
*1195 _1149_
*1196 _1150_
*1197 _1151_
*1198 _1152_
*1199 _1153_
*1200 _1154_
*1201 _1155_
*1202 _1156_
*1203 _1157_
*1204 _1158_
*1205 _1159_
*1206 _1160_
*1207 _1161_
*1208 _1162_
*1209 _1163_
*1210 _1164_
*1211 _1165_
*1212 _1166_
*1213 _1167_
*1214 _1168_
*1215 _1169_
*1216 _1170_
*1217 _1171_
*1218 _1172_
*1219 _1173_
*1220 _1174_
*1221 _1175_
*1222 _1176_
*1223 _1177_
*1224 _1178_
*1225 _1179_
*1226 _1180_
*1227 _1181_
*1228 _1182_
*1229 _1183_
*1230 _1184_
*1231 _1185_
*1232 _1186_
*1233 _1187_
*1234 _1188_
*1235 _1189_
*1236 _1190_
*1237 _1191_
*1238 _1192_
*1239 _1193_
*1240 _1194_
*1241 _1195_
*1242 _1196_
*1243 _1197_
*1244 _1198_
*1245 _1199_
*1246 _1200_
*1247 _1201_
*1248 _1202_
*1249 _1203_
*1250 clknet_0_clk
*1251 clknet_1_0__leaf_clk
*1252 clknet_1_1__leaf_clk
*1253 clknet_leaf_0_clk
*1254 clknet_leaf_10_clk
*1255 clknet_leaf_11_clk
*1256 clknet_leaf_12_clk
*1257 clknet_leaf_13_clk
*1258 clknet_leaf_14_clk
*1259 clknet_leaf_15_clk
*1260 clknet_leaf_16_clk
*1261 clknet_leaf_17_clk
*1262 clknet_leaf_18_clk
*1263 clknet_leaf_19_clk
*1264 clknet_leaf_1_clk
*1265 clknet_leaf_20_clk
*1266 clknet_leaf_21_clk
*1267 clknet_leaf_2_clk
*1268 clknet_leaf_3_clk
*1269 clknet_leaf_4_clk
*1270 clknet_leaf_5_clk
*1271 clknet_leaf_6_clk
*1272 clknet_leaf_7_clk
*1273 clknet_leaf_8_clk
*1274 clknet_leaf_9_clk
*1275 net1
*1276 net17
*1277 net2
*1278 net3
*1279 top\.a_out
*1280 top\.b_out
*1281 top\.blank
*1282 top\.col_cnt\[0\]
*1283 top\.col_cnt\[1\]
*1284 top\.col_cnt\[2\]
*1285 top\.col_cnt\[3\]
*1286 top\.col_cnt\[4\]
*1287 top\.col_cnt\[5\]
*1288 top\.frame_buffer\[0\]\[0\]
*1289 top\.frame_buffer\[0\]\[10\]
*1290 top\.frame_buffer\[0\]\[11\]
*1291 top\.frame_buffer\[0\]\[12\]
*1292 top\.frame_buffer\[0\]\[13\]
*1293 top\.frame_buffer\[0\]\[14\]
*1294 top\.frame_buffer\[0\]\[15\]
*1295 top\.frame_buffer\[0\]\[1\]
*1296 top\.frame_buffer\[0\]\[2\]
*1297 top\.frame_buffer\[0\]\[3\]
*1298 top\.frame_buffer\[0\]\[4\]
*1299 top\.frame_buffer\[0\]\[5\]
*1300 top\.frame_buffer\[0\]\[6\]
*1301 top\.frame_buffer\[0\]\[7\]
*1302 top\.frame_buffer\[0\]\[8\]
*1303 top\.frame_buffer\[0\]\[9\]
*1304 top\.frame_buffer\[10\]\[0\]
*1305 top\.frame_buffer\[10\]\[10\]
*1306 top\.frame_buffer\[10\]\[11\]
*1307 top\.frame_buffer\[10\]\[12\]
*1308 top\.frame_buffer\[10\]\[13\]
*1309 top\.frame_buffer\[10\]\[14\]
*1310 top\.frame_buffer\[10\]\[15\]
*1311 top\.frame_buffer\[10\]\[1\]
*1312 top\.frame_buffer\[10\]\[2\]
*1313 top\.frame_buffer\[10\]\[3\]
*1314 top\.frame_buffer\[10\]\[4\]
*1315 top\.frame_buffer\[10\]\[5\]
*1316 top\.frame_buffer\[10\]\[6\]
*1317 top\.frame_buffer\[10\]\[7\]
*1318 top\.frame_buffer\[10\]\[8\]
*1319 top\.frame_buffer\[10\]\[9\]
*1320 top\.frame_buffer\[11\]\[0\]
*1321 top\.frame_buffer\[11\]\[10\]
*1322 top\.frame_buffer\[11\]\[11\]
*1323 top\.frame_buffer\[11\]\[12\]
*1324 top\.frame_buffer\[11\]\[13\]
*1325 top\.frame_buffer\[11\]\[14\]
*1326 top\.frame_buffer\[11\]\[15\]
*1327 top\.frame_buffer\[11\]\[1\]
*1328 top\.frame_buffer\[11\]\[2\]
*1329 top\.frame_buffer\[11\]\[3\]
*1330 top\.frame_buffer\[11\]\[4\]
*1331 top\.frame_buffer\[11\]\[5\]
*1332 top\.frame_buffer\[11\]\[6\]
*1333 top\.frame_buffer\[11\]\[7\]
*1334 top\.frame_buffer\[11\]\[8\]
*1335 top\.frame_buffer\[11\]\[9\]
*1336 top\.frame_buffer\[12\]\[0\]
*1337 top\.frame_buffer\[12\]\[10\]
*1338 top\.frame_buffer\[12\]\[11\]
*1339 top\.frame_buffer\[12\]\[12\]
*1340 top\.frame_buffer\[12\]\[13\]
*1341 top\.frame_buffer\[12\]\[14\]
*1342 top\.frame_buffer\[12\]\[15\]
*1343 top\.frame_buffer\[12\]\[1\]
*1344 top\.frame_buffer\[12\]\[2\]
*1345 top\.frame_buffer\[12\]\[3\]
*1346 top\.frame_buffer\[12\]\[4\]
*1347 top\.frame_buffer\[12\]\[5\]
*1348 top\.frame_buffer\[12\]\[6\]
*1349 top\.frame_buffer\[12\]\[7\]
*1350 top\.frame_buffer\[12\]\[8\]
*1351 top\.frame_buffer\[12\]\[9\]
*1352 top\.frame_buffer\[13\]\[0\]
*1353 top\.frame_buffer\[13\]\[10\]
*1354 top\.frame_buffer\[13\]\[11\]
*1355 top\.frame_buffer\[13\]\[12\]
*1356 top\.frame_buffer\[13\]\[13\]
*1357 top\.frame_buffer\[13\]\[14\]
*1358 top\.frame_buffer\[13\]\[15\]
*1359 top\.frame_buffer\[13\]\[1\]
*1360 top\.frame_buffer\[13\]\[2\]
*1361 top\.frame_buffer\[13\]\[3\]
*1362 top\.frame_buffer\[13\]\[4\]
*1363 top\.frame_buffer\[13\]\[5\]
*1364 top\.frame_buffer\[13\]\[6\]
*1365 top\.frame_buffer\[13\]\[7\]
*1366 top\.frame_buffer\[13\]\[8\]
*1367 top\.frame_buffer\[13\]\[9\]
*1368 top\.frame_buffer\[14\]\[0\]
*1369 top\.frame_buffer\[14\]\[10\]
*1370 top\.frame_buffer\[14\]\[11\]
*1371 top\.frame_buffer\[14\]\[12\]
*1372 top\.frame_buffer\[14\]\[13\]
*1373 top\.frame_buffer\[14\]\[14\]
*1374 top\.frame_buffer\[14\]\[15\]
*1375 top\.frame_buffer\[14\]\[1\]
*1376 top\.frame_buffer\[14\]\[2\]
*1377 top\.frame_buffer\[14\]\[3\]
*1378 top\.frame_buffer\[14\]\[4\]
*1379 top\.frame_buffer\[14\]\[5\]
*1380 top\.frame_buffer\[14\]\[6\]
*1381 top\.frame_buffer\[14\]\[7\]
*1382 top\.frame_buffer\[14\]\[8\]
*1383 top\.frame_buffer\[14\]\[9\]
*1384 top\.frame_buffer\[15\]\[0\]
*1385 top\.frame_buffer\[15\]\[10\]
*1386 top\.frame_buffer\[15\]\[11\]
*1387 top\.frame_buffer\[15\]\[12\]
*1388 top\.frame_buffer\[15\]\[13\]
*1389 top\.frame_buffer\[15\]\[14\]
*1390 top\.frame_buffer\[15\]\[15\]
*1391 top\.frame_buffer\[15\]\[1\]
*1392 top\.frame_buffer\[15\]\[2\]
*1393 top\.frame_buffer\[15\]\[3\]
*1394 top\.frame_buffer\[15\]\[4\]
*1395 top\.frame_buffer\[15\]\[5\]
*1396 top\.frame_buffer\[15\]\[6\]
*1397 top\.frame_buffer\[15\]\[7\]
*1398 top\.frame_buffer\[15\]\[8\]
*1399 top\.frame_buffer\[15\]\[9\]
*1400 top\.frame_buffer\[1\]\[0\]
*1401 top\.frame_buffer\[1\]\[10\]
*1402 top\.frame_buffer\[1\]\[11\]
*1403 top\.frame_buffer\[1\]\[12\]
*1404 top\.frame_buffer\[1\]\[13\]
*1405 top\.frame_buffer\[1\]\[14\]
*1406 top\.frame_buffer\[1\]\[15\]
*1407 top\.frame_buffer\[1\]\[1\]
*1408 top\.frame_buffer\[1\]\[2\]
*1409 top\.frame_buffer\[1\]\[3\]
*1410 top\.frame_buffer\[1\]\[4\]
*1411 top\.frame_buffer\[1\]\[5\]
*1412 top\.frame_buffer\[1\]\[6\]
*1413 top\.frame_buffer\[1\]\[7\]
*1414 top\.frame_buffer\[1\]\[8\]
*1415 top\.frame_buffer\[1\]\[9\]
*1416 top\.frame_buffer\[2\]\[0\]
*1417 top\.frame_buffer\[2\]\[10\]
*1418 top\.frame_buffer\[2\]\[11\]
*1419 top\.frame_buffer\[2\]\[12\]
*1420 top\.frame_buffer\[2\]\[13\]
*1421 top\.frame_buffer\[2\]\[14\]
*1422 top\.frame_buffer\[2\]\[15\]
*1423 top\.frame_buffer\[2\]\[1\]
*1424 top\.frame_buffer\[2\]\[2\]
*1425 top\.frame_buffer\[2\]\[3\]
*1426 top\.frame_buffer\[2\]\[4\]
*1427 top\.frame_buffer\[2\]\[5\]
*1428 top\.frame_buffer\[2\]\[6\]
*1429 top\.frame_buffer\[2\]\[7\]
*1430 top\.frame_buffer\[2\]\[8\]
*1431 top\.frame_buffer\[2\]\[9\]
*1432 top\.frame_buffer\[3\]\[0\]
*1433 top\.frame_buffer\[3\]\[10\]
*1434 top\.frame_buffer\[3\]\[11\]
*1435 top\.frame_buffer\[3\]\[12\]
*1436 top\.frame_buffer\[3\]\[13\]
*1437 top\.frame_buffer\[3\]\[14\]
*1438 top\.frame_buffer\[3\]\[15\]
*1439 top\.frame_buffer\[3\]\[1\]
*1440 top\.frame_buffer\[3\]\[2\]
*1441 top\.frame_buffer\[3\]\[3\]
*1442 top\.frame_buffer\[3\]\[4\]
*1443 top\.frame_buffer\[3\]\[5\]
*1444 top\.frame_buffer\[3\]\[6\]
*1445 top\.frame_buffer\[3\]\[7\]
*1446 top\.frame_buffer\[3\]\[8\]
*1447 top\.frame_buffer\[3\]\[9\]
*1448 top\.frame_buffer\[4\]\[0\]
*1449 top\.frame_buffer\[4\]\[10\]
*1450 top\.frame_buffer\[4\]\[11\]
*1451 top\.frame_buffer\[4\]\[12\]
*1452 top\.frame_buffer\[4\]\[13\]
*1453 top\.frame_buffer\[4\]\[14\]
*1454 top\.frame_buffer\[4\]\[15\]
*1455 top\.frame_buffer\[4\]\[1\]
*1456 top\.frame_buffer\[4\]\[2\]
*1457 top\.frame_buffer\[4\]\[3\]
*1458 top\.frame_buffer\[4\]\[4\]
*1459 top\.frame_buffer\[4\]\[5\]
*1460 top\.frame_buffer\[4\]\[6\]
*1461 top\.frame_buffer\[4\]\[7\]
*1462 top\.frame_buffer\[4\]\[8\]
*1463 top\.frame_buffer\[4\]\[9\]
*1464 top\.frame_buffer\[5\]\[0\]
*1465 top\.frame_buffer\[5\]\[10\]
*1466 top\.frame_buffer\[5\]\[11\]
*1467 top\.frame_buffer\[5\]\[12\]
*1468 top\.frame_buffer\[5\]\[13\]
*1469 top\.frame_buffer\[5\]\[14\]
*1470 top\.frame_buffer\[5\]\[15\]
*1471 top\.frame_buffer\[5\]\[1\]
*1472 top\.frame_buffer\[5\]\[2\]
*1473 top\.frame_buffer\[5\]\[3\]
*1474 top\.frame_buffer\[5\]\[4\]
*1475 top\.frame_buffer\[5\]\[5\]
*1476 top\.frame_buffer\[5\]\[6\]
*1477 top\.frame_buffer\[5\]\[7\]
*1478 top\.frame_buffer\[5\]\[8\]
*1479 top\.frame_buffer\[5\]\[9\]
*1480 top\.frame_buffer\[6\]\[0\]
*1481 top\.frame_buffer\[6\]\[10\]
*1482 top\.frame_buffer\[6\]\[11\]
*1483 top\.frame_buffer\[6\]\[12\]
*1484 top\.frame_buffer\[6\]\[13\]
*1485 top\.frame_buffer\[6\]\[14\]
*1486 top\.frame_buffer\[6\]\[15\]
*1487 top\.frame_buffer\[6\]\[1\]
*1488 top\.frame_buffer\[6\]\[2\]
*1489 top\.frame_buffer\[6\]\[3\]
*1490 top\.frame_buffer\[6\]\[4\]
*1491 top\.frame_buffer\[6\]\[5\]
*1492 top\.frame_buffer\[6\]\[6\]
*1493 top\.frame_buffer\[6\]\[7\]
*1494 top\.frame_buffer\[6\]\[8\]
*1495 top\.frame_buffer\[6\]\[9\]
*1496 top\.frame_buffer\[7\]\[0\]
*1497 top\.frame_buffer\[7\]\[10\]
*1498 top\.frame_buffer\[7\]\[11\]
*1499 top\.frame_buffer\[7\]\[12\]
*1500 top\.frame_buffer\[7\]\[13\]
*1501 top\.frame_buffer\[7\]\[14\]
*1502 top\.frame_buffer\[7\]\[15\]
*1503 top\.frame_buffer\[7\]\[1\]
*1504 top\.frame_buffer\[7\]\[2\]
*1505 top\.frame_buffer\[7\]\[3\]
*1506 top\.frame_buffer\[7\]\[4\]
*1507 top\.frame_buffer\[7\]\[5\]
*1508 top\.frame_buffer\[7\]\[6\]
*1509 top\.frame_buffer\[7\]\[7\]
*1510 top\.frame_buffer\[7\]\[8\]
*1511 top\.frame_buffer\[7\]\[9\]
*1512 top\.frame_buffer\[8\]\[0\]
*1513 top\.frame_buffer\[8\]\[10\]
*1514 top\.frame_buffer\[8\]\[11\]
*1515 top\.frame_buffer\[8\]\[12\]
*1516 top\.frame_buffer\[8\]\[13\]
*1517 top\.frame_buffer\[8\]\[14\]
*1518 top\.frame_buffer\[8\]\[15\]
*1519 top\.frame_buffer\[8\]\[1\]
*1520 top\.frame_buffer\[8\]\[2\]
*1521 top\.frame_buffer\[8\]\[3\]
*1522 top\.frame_buffer\[8\]\[4\]
*1523 top\.frame_buffer\[8\]\[5\]
*1524 top\.frame_buffer\[8\]\[6\]
*1525 top\.frame_buffer\[8\]\[7\]
*1526 top\.frame_buffer\[8\]\[8\]
*1527 top\.frame_buffer\[8\]\[9\]
*1528 top\.frame_buffer\[9\]\[0\]
*1529 top\.frame_buffer\[9\]\[10\]
*1530 top\.frame_buffer\[9\]\[11\]
*1531 top\.frame_buffer\[9\]\[12\]
*1532 top\.frame_buffer\[9\]\[13\]
*1533 top\.frame_buffer\[9\]\[14\]
*1534 top\.frame_buffer\[9\]\[15\]
*1535 top\.frame_buffer\[9\]\[1\]
*1536 top\.frame_buffer\[9\]\[2\]
*1537 top\.frame_buffer\[9\]\[3\]
*1538 top\.frame_buffer\[9\]\[4\]
*1539 top\.frame_buffer\[9\]\[5\]
*1540 top\.frame_buffer\[9\]\[6\]
*1541 top\.frame_buffer\[9\]\[7\]
*1542 top\.frame_buffer\[9\]\[8\]
*1543 top\.frame_buffer\[9\]\[9\]
*1544 top\.latch
*1545 top\.latch_out
*1546 top\.led_data_state\[0\]
*1547 top\.led_data_state\[1\]
*1548 top\.led_data_state\[2\]
*1549 top\.led_data_state\[3\]
*1550 top\.led_data_state\[4\]
*1551 top\.led_data_state\[5\]
*1552 top\.rgb\[0\]
*1553 top\.rgb\[1\]
*1554 top\.rgb\[2\]
*1555 top\.sclk
*1556 top\.sclk_en
*1557 top\.uart_data_state\[0\]
*1558 top\.uart_data_state\[1\]
*1559 top\.uart_data_state\[2\]
*1560 top\.uart_rx\.r_Bit_Index\[0\]
*1561 top\.uart_rx\.r_Bit_Index\[1\]
*1562 top\.uart_rx\.r_Bit_Index\[2\]
*1563 top\.uart_rx\.r_Clock_Count\[0\]
*1564 top\.uart_rx\.r_Clock_Count\[1\]
*1565 top\.uart_rx\.r_Clock_Count\[2\]
*1566 top\.uart_rx\.r_Clock_Count\[3\]
*1567 top\.uart_rx\.r_Clock_Count\[4\]
*1568 top\.uart_rx\.r_Clock_Count\[5\]
*1569 top\.uart_rx\.r_Clock_Count\[6\]
*1570 top\.uart_rx\.r_Clock_Count\[7\]
*1571 top\.uart_rx\.r_Rx_Byte\[0\]
*1572 top\.uart_rx\.r_Rx_Byte\[1\]
*1573 top\.uart_rx\.r_Rx_Byte\[2\]
*1574 top\.uart_rx\.r_Rx_Byte\[3\]
*1575 top\.uart_rx\.r_Rx_Byte\[4\]
*1576 top\.uart_rx\.r_Rx_Byte\[5\]
*1577 top\.uart_rx\.r_Rx_Byte\[6\]
*1578 top\.uart_rx\.r_Rx_Byte\[7\]
*1579 top\.uart_rx\.r_Rx_DV
*1580 top\.uart_rx\.r_Rx_Data
*1581 top\.uart_rx\.r_Rx_Data_R
*1582 top\.uart_rx\.r_SM_Main\[0\]
*1583 top\.uart_rx\.r_SM_Main\[1\]
*1584 top\.uart_rx\.r_SM_Main\[2\]
*1585 ANTENNA_1
*1586 ANTENNA_2
*1587 ANTENNA_3
*1588 FILLER_0_109
*1589 FILLER_0_113
*1590 FILLER_0_125
*1591 FILLER_0_137
*1592 FILLER_0_141
*1593 FILLER_0_15
*1594 FILLER_0_153
*1595 FILLER_0_165
*1596 FILLER_0_169
*1597 FILLER_0_181
*1598 FILLER_0_193
*1599 FILLER_0_197
*1600 FILLER_0_209
*1601 FILLER_0_221
*1602 FILLER_0_225
*1603 FILLER_0_237
*1604 FILLER_0_249
*1605 FILLER_0_253
*1606 FILLER_0_265
*1607 FILLER_0_27
*1608 FILLER_0_277
*1609 FILLER_0_281
*1610 FILLER_0_29
*1611 FILLER_0_293
*1612 FILLER_0_3
*1613 FILLER_0_305
*1614 FILLER_0_309
*1615 FILLER_0_321
*1616 FILLER_0_333
*1617 FILLER_0_337
*1618 FILLER_0_349
*1619 FILLER_0_361
*1620 FILLER_0_365
*1621 FILLER_0_377
*1622 FILLER_0_389
*1623 FILLER_0_393
*1624 FILLER_0_405
*1625 FILLER_0_41
*1626 FILLER_0_417
*1627 FILLER_0_421
*1628 FILLER_0_433
*1629 FILLER_0_445
*1630 FILLER_0_449
*1631 FILLER_0_461
*1632 FILLER_0_473
*1633 FILLER_0_477
*1634 FILLER_0_489
*1635 FILLER_0_501
*1636 FILLER_0_505
*1637 FILLER_0_517
*1638 FILLER_0_529
*1639 FILLER_0_53
*1640 FILLER_0_533
*1641 FILLER_0_545
*1642 FILLER_0_557
*1643 FILLER_0_561
*1644 FILLER_0_57
*1645 FILLER_0_573
*1646 FILLER_0_585
*1647 FILLER_0_589
*1648 FILLER_0_601
*1649 FILLER_0_613
*1650 FILLER_0_617
*1651 FILLER_0_629
*1652 FILLER_0_641
*1653 FILLER_0_645
*1654 FILLER_0_657
*1655 FILLER_0_669
*1656 FILLER_0_673
*1657 FILLER_0_685
*1658 FILLER_0_69
*1659 FILLER_0_697
*1660 FILLER_0_701
*1661 FILLER_0_81
*1662 FILLER_0_85
*1663 FILLER_0_97
*1664 FILLER_10_109
*1665 FILLER_10_121
*1666 FILLER_10_133
*1667 FILLER_10_139
*1668 FILLER_10_141
*1669 FILLER_10_15
*1670 FILLER_10_153
*1671 FILLER_10_165
*1672 FILLER_10_177
*1673 FILLER_10_189
*1674 FILLER_10_195
*1675 FILLER_10_197
*1676 FILLER_10_209
*1677 FILLER_10_221
*1678 FILLER_10_233
*1679 FILLER_10_245
*1680 FILLER_10_251
*1681 FILLER_10_253
*1682 FILLER_10_265
*1683 FILLER_10_27
*1684 FILLER_10_277
*1685 FILLER_10_289
*1686 FILLER_10_29
*1687 FILLER_10_3
*1688 FILLER_10_301
*1689 FILLER_10_307
*1690 FILLER_10_309
*1691 FILLER_10_321
*1692 FILLER_10_333
*1693 FILLER_10_345
*1694 FILLER_10_357
*1695 FILLER_10_363
*1696 FILLER_10_365
*1697 FILLER_10_377
*1698 FILLER_10_389
*1699 FILLER_10_401
*1700 FILLER_10_41
*1701 FILLER_10_413
*1702 FILLER_10_419
*1703 FILLER_10_421
*1704 FILLER_10_433
*1705 FILLER_10_445
*1706 FILLER_10_457
*1707 FILLER_10_469
*1708 FILLER_10_475
*1709 FILLER_10_477
*1710 FILLER_10_489
*1711 FILLER_10_501
*1712 FILLER_10_513
*1713 FILLER_10_525
*1714 FILLER_10_53
*1715 FILLER_10_531
*1716 FILLER_10_533
*1717 FILLER_10_545
*1718 FILLER_10_557
*1719 FILLER_10_569
*1720 FILLER_10_581
*1721 FILLER_10_587
*1722 FILLER_10_589
*1723 FILLER_10_601
*1724 FILLER_10_613
*1725 FILLER_10_625
*1726 FILLER_10_637
*1727 FILLER_10_643
*1728 FILLER_10_645
*1729 FILLER_10_65
*1730 FILLER_10_657
*1731 FILLER_10_669
*1732 FILLER_10_681
*1733 FILLER_10_693
*1734 FILLER_10_699
*1735 FILLER_10_701
*1736 FILLER_10_77
*1737 FILLER_10_83
*1738 FILLER_10_85
*1739 FILLER_10_97
*1740 FILLER_11_105
*1741 FILLER_11_111
*1742 FILLER_11_113
*1743 FILLER_11_125
*1744 FILLER_11_137
*1745 FILLER_11_149
*1746 FILLER_11_15
*1747 FILLER_11_161
*1748 FILLER_11_167
*1749 FILLER_11_169
*1750 FILLER_11_181
*1751 FILLER_11_193
*1752 FILLER_11_205
*1753 FILLER_11_217
*1754 FILLER_11_223
*1755 FILLER_11_225
*1756 FILLER_11_237
*1757 FILLER_11_249
*1758 FILLER_11_261
*1759 FILLER_11_27
*1760 FILLER_11_273
*1761 FILLER_11_279
*1762 FILLER_11_281
*1763 FILLER_11_293