*SPEF "ieee 1481-1999"
*DESIGN "tt_um_MichaelBell_hovalaag"
*DATE "11:11:11 Fri 11 11, 1111"
*VENDOR "OpenRCX"
*PROGRAM "Parallel Extraction"
*VERSION "1.0"
*DESIGN_FLOW "NAME_SCOPE LOCAL" "PIN_CAP NONE"
*DIVIDER /
*DELIMITER :
*BUS_DELIMITER []
*T_UNIT 1 NS
*C_UNIT 1 PF
*R_UNIT 1 OHM
*L_UNIT 1 HENRY

*NAME_MAP
*1 clk
*2 ena
*3 rst_n
*4 ui_in[0]
*5 ui_in[1]
*6 ui_in[2]
*7 ui_in[3]
*8 ui_in[4]
*9 ui_in[5]
*10 ui_in[6]
*11 ui_in[7]
*12 uio_in[0]
*13 uio_in[1]
*14 uio_in[2]
*15 uio_in[3]
*16 uio_in[4]
*17 uio_in[5]
*18 uio_in[6]
*19 uio_in[7]
*20 net16
*21 net17
*22 net18
*23 net19
*24 net27
*25 net28
*26 net29
*27 net30
*28 net20
*29 net21
*30 net22
*31 net23
*32 uio_out[4]
*33 uio_out[5]
*34 uio_out[6]
*35 uio_out[7]
*36 uo_out[0]
*37 uo_out[1]
*38 uo_out[2]
*39 uo_out[3]
*40 uo_out[4]
*41 uo_out[5]
*42 uo_out[6]
*43 uo_out[7]
*46 _0000_
*47 _0001_
*48 _0002_
*49 _0003_
*50 _0004_
*51 _0005_
*52 _0006_
*53 _0007_
*54 _0008_
*55 _0009_
*56 _0010_
*57 _0011_
*58 _0012_
*59 _0013_
*60 _0014_
*61 _0015_
*62 _0016_
*63 _0017_
*64 _0018_
*65 _0019_
*66 _0020_
*67 _0021_
*68 _0022_
*69 _0023_
*70 _0024_
*71 _0025_
*72 _0026_
*73 _0027_
*74 _0028_
*75 _0029_
*76 _0030_
*77 _0031_
*78 _0032_
*79 _0033_
*80 _0034_
*81 _0035_
*82 _0036_
*83 _0037_
*84 _0038_
*85 _0039_
*86 _0040_
*87 _0041_
*88 _0042_
*89 _0043_
*90 _0044_
*91 _0045_
*92 _0046_
*93 _0047_
*94 _0048_
*95 _0049_
*96 _0050_
*97 _0051_
*98 _0052_
*99 _0053_
*100 _0054_
*101 _0055_
*102 _0056_
*103 _0057_
*104 _0058_
*105 _0059_
*106 _0060_
*107 _0061_
*108 _0062_
*109 _0063_
*110 _0064_
*111 _0065_
*112 _0066_
*113 _0067_
*114 _0068_
*115 _0069_
*116 _0070_
*117 _0071_
*118 _0072_
*119 _0073_
*120 _0074_
*121 _0075_
*122 _0076_
*123 _0077_
*124 _0078_
*125 _0079_
*126 _0080_
*127 _0081_
*128 _0082_
*129 _0083_
*130 _0084_
*131 _0085_
*132 _0086_
*133 _0087_
*134 _0088_
*135 _0089_
*136 _0090_
*137 _0091_
*138 _0092_
*139 _0093_
*140 _0094_
*141 _0095_
*142 _0096_
*143 _0097_
*144 _0098_
*145 _0099_
*146 _0100_
*147 _0101_
*148 _0102_
*149 _0103_
*150 _0104_
*151 _0105_
*152 _0106_
*153 _0107_
*154 _0108_
*155 _0109_
*156 _0110_
*157 _0111_
*158 _0112_
*159 _0113_
*160 _0114_
*161 _0115_
*162 _0116_
*163 _0117_
*164 _0118_
*165 _0119_
*166 _0120_
*167 _0121_
*168 _0122_
*169 _0123_
*170 _0124_
*171 _0125_
*172 _0126_
*173 _0127_
*174 _0128_
*175 _0129_
*176 _0130_
*177 _0131_
*178 _0132_
*179 _0133_
*180 _0134_
*181 _0135_
*182 _0136_
*183 _0137_
*184 _0138_
*185 _0139_
*186 _0140_
*187 _0141_
*188 _0142_
*189 _0143_
*190 _0144_
*191 _0145_
*192 _0146_
*193 _0147_
*194 _0148_
*195 _0149_
*196 _0150_
*197 _0151_
*198 _0152_
*199 _0153_
*200 _0154_
*201 _0155_
*202 _0156_
*203 _0157_
*204 _0158_
*205 _0159_
*206 _0160_
*207 _0161_
*208 _0162_
*209 _0163_
*210 _0164_
*211 _0165_
*212 _0166_
*213 _0167_
*214 _0168_
*215 _0169_
*216 _0170_
*217 _0171_
*218 _0172_
*219 _0173_
*220 _0174_
*221 _0175_
*222 _0176_
*223 _0177_
*224 _0178_
*225 _0179_
*226 _0180_
*227 _0181_
*228 _0182_
*229 _0183_
*230 _0184_
*231 _0185_
*232 _0186_
*233 _0187_
*234 _0188_
*235 _0189_
*236 _0190_
*237 _0191_
*238 _0192_
*239 _0193_
*240 _0194_
*241 _0195_
*242 _0196_
*243 _0197_
*244 _0198_
*245 _0199_
*246 _0200_
*247 _0201_
*248 _0202_
*249 _0203_
*250 _0204_
*251 _0205_
*252 _0206_
*253 _0207_
*254 _0208_
*255 _0209_
*256 _0210_
*257 _0211_
*258 _0212_
*259 _0213_
*260 _0214_
*261 _0215_
*262 _0216_
*263 _0217_
*264 _0218_
*265 _0219_
*266 _0220_
*267 _0221_
*268 _0222_
*269 _0223_
*270 _0224_
*271 _0225_
*272 _0226_
*273 _0227_
*274 _0228_
*275 _0229_
*276 _0230_
*277 _0231_
*278 _0232_
*279 _0233_
*280 _0234_
*281 _0235_
*282 _0236_
*283 _0237_
*284 _0238_
*285 _0239_
*286 _0240_
*287 _0241_
*288 _0242_
*289 _0243_
*290 _0244_
*291 _0245_
*292 _0246_
*293 _0247_
*294 _0248_
*295 _0249_
*296 _0250_
*297 _0251_
*298 _0252_
*299 _0253_
*300 _0254_
*301 _0255_
*302 _0256_
*303 _0257_
*304 _0258_
*305 _0259_
*306 _0260_
*307 _0261_
*308 _0262_
*309 _0263_
*310 _0264_
*311 _0265_
*312 _0266_
*313 _0267_
*314 _0268_
*315 _0269_
*316 _0270_
*317 _0271_
*318 _0272_
*319 _0273_
*320 _0274_
*321 _0275_
*322 _0276_
*323 _0277_
*324 _0278_
*325 _0279_
*326 _0280_
*327 _0281_
*328 _0282_
*329 _0283_
*330 _0284_
*331 _0285_
*332 _0286_
*333 _0287_
*334 _0288_
*335 _0289_
*336 _0290_
*337 _0291_
*338 _0292_
*339 _0293_
*340 _0294_
*341 _0295_
*342 _0296_
*343 _0297_
*344 _0298_
*345 _0299_
*346 _0300_
*347 _0301_
*348 _0302_
*349 _0303_
*350 _0304_
*351 _0305_
*352 _0306_
*353 _0307_
*354 _0308_
*355 _0309_
*356 _0310_
*357 _0311_
*358 _0312_
*359 _0313_
*360 _0314_
*361 _0315_
*362 _0316_
*363 _0317_
*364 _0318_
*365 _0319_
*366 _0320_
*367 _0321_
*368 _0322_
*369 _0323_
*370 _0324_
*371 _0325_
*372 _0326_
*373 _0327_
*374 _0328_
*375 _0329_
*376 _0330_
*377 _0331_
*378 _0332_
*379 _0333_
*380 _0334_
*381 _0335_
*382 _0336_
*383 _0337_
*384 _0338_
*385 _0339_
*386 _0340_
*387 _0341_
*388 _0342_
*389 _0343_
*390 _0344_
*391 _0345_
*392 _0346_
*393 _0347_
*394 _0348_
*395 _0349_
*396 _0350_
*397 _0351_
*398 _0352_
*399 _0353_
*400 _0354_
*401 _0355_
*402 _0356_
*403 _0357_
*404 _0358_
*405 _0359_
*406 _0360_
*407 _0361_
*408 _0362_
*409 _0363_
*410 _0364_
*411 _0365_
*412 _0366_
*413 _0367_
*414 _0368_
*415 _0369_
*416 _0370_
*417 _0371_
*418 _0372_
*419 _0373_
*420 _0374_
*421 _0375_
*422 _0376_
*423 _0377_
*424 _0378_
*425 _0379_
*426 _0380_
*427 _0381_
*428 _0382_
*429 _0383_
*430 _0384_
*431 _0385_
*432 _0386_
*433 _0387_
*434 _0388_
*435 _0389_
*436 _0390_
*437 _0391_
*438 _0392_
*439 _0393_
*440 _0394_
*441 _0395_
*442 _0396_
*443 _0397_
*444 _0398_
*445 _0399_
*446 _0400_
*447 _0401_
*448 _0402_
*449 _0403_
*450 _0404_
*451 _0405_
*452 _0406_
*453 _0407_
*454 _0408_
*455 _0409_
*456 _0410_
*457 _0411_
*458 _0412_
*459 _0413_
*460 _0414_
*461 _0415_
*462 _0416_
*463 _0417_
*464 _0418_
*465 _0419_
*466 _0420_
*467 _0421_
*468 _0422_
*469 _0423_
*470 _0424_
*471 _0425_
*472 _0426_
*473 _0427_
*474 _0428_
*475 _0429_
*476 _0430_
*477 _0431_
*478 _0432_
*479 _0433_
*480 _0434_
*481 _0435_
*482 _0436_
*483 _0437_
*484 _0438_
*485 _0439_
*486 _0440_
*487 _0441_
*488 _0442_
*489 _0443_
*490 _0444_
*491 _0445_
*492 _0446_
*493 _0447_
*494 _0448_
*495 _0449_
*496 _0450_
*497 _0451_
*498 _0452_
*499 _0453_
*500 _0454_
*501 _0455_
*502 _0456_
*503 _0457_
*504 _0458_
*505 _0459_
*506 _0460_
*507 _0461_
*508 _0462_
*509 _0463_
*510 _0464_
*511 _0465_
*512 _0466_
*513 _0467_
*514 _0468_
*515 _0469_
*516 _0470_
*517 _0471_
*518 _0472_
*519 _0473_
*520 _0474_
*521 _0475_
*522 _0476_
*523 _0477_
*524 _0478_
*525 _0479_
*526 _0480_
*527 _0481_
*528 _0482_
*529 _0483_
*530 _0484_
*531 _0485_
*532 _0486_
*533 _0487_
*534 _0488_
*535 _0489_
*536 _0490_
*537 _0491_
*538 _0492_
*539 _0493_
*540 _0494_
*541 _0495_
*542 _0496_
*543 _0497_
*544 _0498_
*545 _0499_
*546 _0500_
*547 _0501_
*548 _0502_
*549 _0503_
*550 _0504_
*551 _0505_
*552 _0506_
*553 _0507_
*554 _0508_
*555 _0509_
*556 _0510_
*557 _0511_
*558 _0512_
*559 _0513_
*560 _0514_
*561 _0515_
*562 _0516_
*563 _0517_
*564 _0518_
*565 _0519_
*566 _0520_
*567 _0521_
*568 _0522_
*569 _0523_
*570 _0524_
*571 _0525_
*572 _0526_
*573 _0527_
*574 _0528_
*575 _0529_
*576 _0530_
*577 _0531_
*578 _0532_
*579 _0533_
*580 _0534_
*581 _0535_
*582 _0536_
*583 _0537_
*584 _0538_
*585 _0539_
*586 _0540_
*587 _0541_
*588 _0542_
*589 _0543_
*590 _0544_
*591 _0545_
*592 _0546_
*593 _0547_
*594 _0548_
*595 _0549_
*596 _0550_
*597 _0551_
*598 _0552_
*599 _0553_
*600 _0554_
*601 _0555_
*602 _0556_
*603 _0557_
*604 _0558_
*605 _0559_
*606 _0560_
*607 _0561_
*608 _0562_
*609 _0563_
*610 _0564_
*611 _0565_
*612 _0566_
*613 _0567_
*614 _0568_
*615 _0569_
*616 _0570_
*617 _0571_
*618 _0572_
*619 _0573_
*620 _0574_
*621 _0575_
*622 _0576_
*623 _0577_
*624 _0578_
*625 _0579_
*626 _0580_
*627 _0581_
*628 _0582_
*629 _0583_
*630 _0584_
*631 _0585_
*632 _0586_
*633 _0587_
*634 _0588_
*635 _0589_
*636 _0590_
*637 _0591_
*638 _0592_
*639 _0593_
*640 _0594_
*641 _0595_
*642 _0596_
*643 _0597_
*644 _0598_
*645 _0599_
*646 _0600_
*647 _0601_
*648 _0602_
*649 _0603_
*650 _0604_
*651 _0605_
*652 _0606_
*653 _0607_
*654 _0608_
*655 _0609_
*656 _0610_
*657 _0611_
*658 _0612_
*659 _0613_
*660 _0614_
*661 _0615_
*662 _0616_
*663 _0617_
*664 _0618_
*665 _0619_
*666 _0620_
*667 _0621_
*668 _0622_
*669 _0623_
*670 _0624_
*671 _0625_
*672 _0626_
*673 _0627_
*674 _0628_
*675 _0629_
*676 _0630_
*677 _0631_
*678 _0632_
*679 _0633_
*680 _0634_
*681 _0635_
*682 _0636_
*683 _0637_
*684 _0638_
*685 _0639_
*686 _0640_
*687 _0641_
*688 _0642_
*689 _0643_
*690 _0644_
*691 _0645_
*692 _0646_
*693 _0647_
*694 _0648_
*695 _0649_
*696 _0650_
*697 _0651_
*698 _0652_
*699 _0653_
*700 _0654_
*701 _0655_
*702 _0656_
*703 _0657_
*704 _0658_
*705 _0659_
*706 _0660_
*707 _0661_
*708 _0662_
*709 _0663_
*710 _0664_
*711 _0665_
*712 _0666_
*713 _0667_
*714 _0668_
*715 _0669_
*716 _0670_
*717 _0671_
*718 _0672_
*719 _0673_
*720 _0674_
*721 _0675_
*722 _0676_
*723 _0677_
*724 _0678_
*725 _0679_
*726 _0680_
*727 _0681_
*728 _0682_
*729 _0683_
*730 _0684_
*731 _0685_
*732 _0686_
*733 _0687_
*734 _0688_
*735 _0689_
*736 _0690_
*737 _0691_
*738 _0692_
*739 _0693_
*740 _0694_
*741 _0695_
*742 _0696_
*743 _0697_
*744 _0698_
*745 _0699_
*746 _0700_
*747 _0701_
*748 _0702_
*749 _0703_
*750 _0704_
*751 _0705_
*752 _0706_
*753 _0707_
*754 _0708_
*755 _0709_
*756 _0710_
*757 _0711_
*758 _0712_
*759 _0713_
*760 _0714_
*761 _0715_
*762 _0716_
*763 _0717_
*764 _0718_
*765 _0719_
*766 _0720_
*767 _0721_
*768 _0722_
*769 _0723_
*770 _0724_
*771 _0725_
*772 _0726_
*773 _0727_
*774 _0728_
*775 _0729_
*776 _0730_
*777 _0731_
*778 _0732_
*779 _0733_
*780 _0734_
*781 _0735_
*782 _0736_
*783 _0737_
*784 _0738_
*785 _0739_
*786 _0740_
*787 _0741_
*788 _0742_
*789 _0743_
*790 _0744_
*791 _0745_
*792 _0746_
*793 _0747_
*794 _0748_
*795 _0749_
*796 _0750_
*797 _0751_
*798 _0752_
*799 _0753_
*800 _0754_
*801 _0755_
*802 _0756_
*803 _0757_
*804 _0758_
*805 _0759_
*806 _0760_
*807 _0761_
*808 _0762_
*809 _0763_
*810 _0764_
*811 _0765_
*812 _0766_
*813 _0767_
*814 _0768_
*815 _0769_
*816 _0770_
*817 _0771_
*818 _0772_
*819 _0773_
*820 _0774_
*821 _0775_
*822 _0776_
*823 _0777_
*824 _0778_
*825 _0779_
*826 _0780_
*827 _0781_
*828 _0782_
*829 _0783_
*830 _0784_
*831 _0785_
*832 _0786_
*833 _0787_
*834 _0788_
*835 _0789_
*836 _0790_
*837 _0791_
*838 _0792_
*839 _0793_
*840 _0794_
*841 _0795_
*842 _0796_
*843 _0797_
*844 _0798_
*845 _0799_
*846 _0800_
*847 _0801_
*848 _0802_
*849 _0803_
*850 _0804_
*851 _0805_
*852 _0806_
*853 _0807_
*854 _0808_
*855 _0809_
*856 _0810_
*857 _0811_
*858 _0812_
*859 _0813_
*860 _0814_
*861 _0815_
*862 _0816_
*863 _0817_
*864 _0818_
*865 _0819_
*866 _0820_
*867 _0821_
*868 _0822_
*869 _0823_
*870 _0824_
*871 _0825_
*872 _0826_
*873 _0827_
*874 _0828_
*875 _0829_
*876 _0830_
*877 _0831_
*878 _0832_
*879 _0833_
*880 _0834_
*881 _0835_
*882 _0836_
*883 _0837_
*884 _0838_
*885 _0839_
*886 _0840_
*887 _0841_
*888 _0842_
*889 _0843_
*890 _0844_
*891 _0845_
*892 _0846_
*893 _0847_
*894 _0848_
*895 _0849_
*896 _0850_
*897 _0851_
*898 _0852_
*899 _0853_
*900 _0854_
*901 _0855_
*902 _0856_
*903 _0857_
*904 _0858_
*905 _0859_
*906 _0860_
*907 _0861_
*908 _0862_
*909 _0863_
*910 _0864_
*911 _0865_
*912 _0866_
*913 _0867_
*914 _0868_
*915 _0869_
*916 _0870_
*917 _0871_
*918 _0872_
*919 _0873_
*920 _0874_
*921 _0875_
*922 _0876_
*923 _0877_
*924 _0878_
*925 _0879_
*926 _0880_
*927 _0881_
*928 _0882_
*929 _0883_
*930 _0884_
*931 _0885_
*932 _0886_
*933 _0887_
*934 _0888_
*935 _0889_
*936 _0890_
*937 _0891_
*938 _0892_
*939 _0893_
*940 _0894_
*941 _0895_
*942 _0896_
*943 _0897_
*944 _0898_
*945 _0899_
*946 _0900_
*947 _0901_
*948 _0902_
*949 _0903_
*950 _0904_
*951 _0905_
*952 _0906_
*953 _0907_
*954 _0908_
*955 _0909_
*956 _0910_
*957 _0911_
*958 _0912_
*959 _0913_
*960 _0914_
*961 _0915_
*962 _0916_
*963 _0917_
*964 _0918_
*965 _0919_
*966 _0920_
*967 _0921_
*968 _0922_
*969 _0923_
*970 _0924_
*971 _0925_
*972 _0926_
*973 _0927_
*974 _0928_
*975 _0929_
*976 _0930_
*977 _0931_
*978 _0932_
*979 _0933_
*980 _0934_
*981 _0935_
*982 _0936_
*983 _0937_
*984 _0938_
*985 _0939_
*986 _0940_
*987 _0941_
*988 clknet_0_clk
*989 clknet_4_0_0_clk
*990 clknet_4_10_0_clk
*991 clknet_4_11_0_clk
*992 clknet_4_12_0_clk
*993 clknet_4_13_0_clk
*994 clknet_4_14_0_clk
*995 clknet_4_15_0_clk
*996 clknet_4_1_0_clk
*997 clknet_4_2_0_clk
*998 clknet_4_3_0_clk
*999 clknet_4_4_0_clk
*1000 clknet_4_5_0_clk
*1001 clknet_4_6_0_clk
*1002 clknet_4_7_0_clk
*1003 clknet_4_8_0_clk
*1004 clknet_4_9_0_clk
*1005 net1
*1006 net10
*1007 net11
*1008 net12
*1009 net13
*1010 net14
*1011 net15
*1012 net2
*1013 net24
*1014 net25
*1015 net26
*1016 net3
*1017 net4
*1018 net5
*1019 net6
*1020 net7
*1021 net8
*1022 net9
*1023 next_addr\[0\]
*1024 next_addr\[1\]
*1025 next_addr\[2\]
*1026 reset_rosc_n
*1027 wrapper\.addr\[0\]
*1028 wrapper\.addr\[1\]
*1029 wrapper\.addr\[2\]
*1030 wrapper\.buffered_fast_count\[0\]
*1031 wrapper\.buffered_fast_count\[1\]
*1032 wrapper\.buffered_fast_count\[2\]
*1033 wrapper\.fast_count\[0\]
*1034 wrapper\.fast_count\[1\]
*1035 wrapper\.fast_count\[2\]
*1036 wrapper\.hov\.A\[0\]
*1037 wrapper\.hov\.A\[10\]
*1038 wrapper\.hov\.A\[11\]
*1039 wrapper\.hov\.A\[1\]
*1040 wrapper\.hov\.A\[2\]
*1041 wrapper\.hov\.A\[3\]
*1042 wrapper\.hov\.A\[4\]
*1043 wrapper\.hov\.A\[5\]
*1044 wrapper\.hov\.A\[6\]
*1045 wrapper\.hov\.A\[7\]
*1046 wrapper\.hov\.A\[8\]
*1047 wrapper\.hov\.A\[9\]
*1048 wrapper\.hov\.B\[0\]
*1049 wrapper\.hov\.B\[10\]
*1050 wrapper\.hov\.B\[11\]
*1051 wrapper\.hov\.B\[1\]
*1052 wrapper\.hov\.B\[2\]
*1053 wrapper\.hov\.B\[3\]
*1054 wrapper\.hov\.B\[4\]
*1055 wrapper\.hov\.B\[5\]
*1056 wrapper\.hov\.B\[6\]
*1057 wrapper\.hov\.B\[7\]
*1058 wrapper\.hov\.B\[8\]
*1059 wrapper\.hov\.B\[9\]
*1060 wrapper\.hov\.C\[0\]
*1061 wrapper\.hov\.C\[10\]
*1062 wrapper\.hov\.C\[11\]
*1063 wrapper\.hov\.C\[1\]
*1064 wrapper\.hov\.C\[2\]
*1065 wrapper\.hov\.C\[3\]
*1066 wrapper\.hov\.C\[4\]
*1067 wrapper\.hov\.C\[5\]
*1068 wrapper\.hov\.C\[6\]
*1069 wrapper\.hov\.C\[7\]
*1070 wrapper\.hov\.C\[8\]
*1071 wrapper\.hov\.C\[9\]
*1072 wrapper\.hov\.C_op\[0\]
*1073 wrapper\.hov\.C_op\[1\]
*1074 wrapper\.hov\.D\[0\]
*1075 wrapper\.hov\.D\[10\]
*1076 wrapper\.hov\.D\[11\]
*1077 wrapper\.hov\.D\[1\]
*1078 wrapper\.hov\.D\[2\]
*1079 wrapper\.hov\.D\[3\]
*1080 wrapper\.hov\.D\[4\]
*1081 wrapper\.hov\.D\[5\]
*1082 wrapper\.hov\.D\[6\]
*1083 wrapper\.hov\.D\[7\]
*1084 wrapper\.hov\.D\[8\]
*1085 wrapper\.hov\.D\[9\]
*1086 wrapper\.hov\.D_op
*1087 wrapper\.hov\.F
*1088 wrapper\.hov\.F_op\[0\]
*1089 wrapper\.hov\.F_op\[1\]
*1090 wrapper\.hov\.IN1\[0\]
*1091 wrapper\.hov\.IN1\[10\]
*1092 wrapper\.hov\.IN1\[11\]
*1093 wrapper\.hov\.IN1\[1\]
*1094 wrapper\.hov\.IN1\[2\]
*1095 wrapper\.hov\.IN1\[3\]
*1096 wrapper\.hov\.IN1\[4\]
*1097 wrapper\.hov\.IN1\[5\]
*1098 wrapper\.hov\.IN1\[6\]
*1099 wrapper\.hov\.IN1\[7\]
*1100 wrapper\.hov\.IN1\[8\]
*1101 wrapper\.hov\.IN1\[9\]
*1102 wrapper\.hov\.IN2\[0\]
*1103 wrapper\.hov\.IN2\[10\]
*1104 wrapper\.hov\.IN2\[11\]
*1105 wrapper\.hov\.IN2\[1\]
*1106 wrapper\.hov\.IN2\[2\]
*1107 wrapper\.hov\.IN2\[3\]
*1108 wrapper\.hov\.IN2\[4\]
*1109 wrapper\.hov\.IN2\[5\]
*1110 wrapper\.hov\.IN2\[6\]
*1111 wrapper\.hov\.IN2\[7\]
*1112 wrapper\.hov\.IN2\[8\]
*1113 wrapper\.hov\.IN2\[9\]
*1114 wrapper\.hov\.IO_select
*1115 wrapper\.hov\.K\[11\]
*1116 wrapper\.hov\.L\[0\]
*1117 wrapper\.hov\.L\[1\]
*1118 wrapper\.hov\.L\[2\]
*1119 wrapper\.hov\.L\[3\]
*1120 wrapper\.hov\.L\[4\]
*1121 wrapper\.hov\.L\[5\]
*1122 wrapper\.hov\.OUT\[0\]
*1123 wrapper\.hov\.OUT\[10\]
*1124 wrapper\.hov\.OUT\[11\]
*1125 wrapper\.hov\.OUT\[1\]
*1126 wrapper\.hov\.OUT\[2\]
*1127 wrapper\.hov\.OUT\[3\]
*1128 wrapper\.hov\.OUT\[4\]
*1129 wrapper\.hov\.OUT\[5\]
*1130 wrapper\.hov\.OUT\[6\]
*1131 wrapper\.hov\.OUT\[7\]
*1132 wrapper\.hov\.OUT\[8\]
*1133 wrapper\.hov\.OUT\[9\]
*1134 wrapper\.hov\.PC\[0\]
*1135 wrapper\.hov\.PC\[1\]
*1136 wrapper\.hov\.PC\[2\]
*1137 wrapper\.hov\.PC\[3\]
*1138 wrapper\.hov\.PC\[4\]
*1139 wrapper\.hov\.PC\[5\]
*1140 wrapper\.hov\.PC\[6\]
*1141 wrapper\.hov\.PC\[7\]
*1142 wrapper\.hov\.PC_op\[0\]
*1143 wrapper\.hov\.PC_op\[1\]
*1144 wrapper\.hov\.W\[0\]
*1145 wrapper\.hov\.W\[10\]
*1146 wrapper\.hov\.W\[11\]
*1147 wrapper\.hov\.W\[1\]
*1148 wrapper\.hov\.W\[2\]
*1149 wrapper\.hov\.W\[3\]
*1150 wrapper\.hov\.W\[4\]
*1151 wrapper\.hov\.W\[5\]
*1152 wrapper\.hov\.W\[6\]
*1153 wrapper\.hov\.W\[7\]
*1154 wrapper\.hov\.W\[8\]
*1155 wrapper\.hov\.W\[9\]
*1156 wrapper\.hov\.W_op\[0\]
*1157 wrapper\.hov\.W_op\[1\]
*1158 wrapper\.hov\.alu_op_14_source\[0\]
*1159 wrapper\.hov\.alu_op_14_source\[10\]
*1160 wrapper\.hov\.alu_op_14_source\[11\]
*1161 wrapper\.hov\.alu_op_14_source\[1\]
*1162 wrapper\.hov\.alu_op_14_source\[2\]
*1163 wrapper\.hov\.alu_op_14_source\[3\]
*1164 wrapper\.hov\.alu_op_14_source\[4\]
*1165 wrapper\.hov\.alu_op_14_source\[5\]
*1166 wrapper\.hov\.alu_op_14_source\[6\]
*1167 wrapper\.hov\.alu_op_14_source\[7\]
*1168 wrapper\.hov\.alu_op_14_source\[8\]
*1169 wrapper\.hov\.alu_op_14_source\[9\]
*1170 wrapper\.hov\.instr\[10\]
*1171 wrapper\.hov\.instr\[12\]
*1172 wrapper\.hov\.instr\[14\]
*1173 wrapper\.hov\.instr\[6\]
*1174 wrapper\.hov\.instr\[7\]
*1175 wrapper\.hov\.instr\[8\]
*1176 wrapper\.hov\.instr\[9\]
*1177 wrapper\.reset_n
*1178 wrapper\.reset_rosc_n
*1179 wrapper\.rosc\.c\[0\]
*1180 wrapper\.rosc\.c\[10\]
*1181 wrapper\.rosc\.c\[1\]
*1182 wrapper\.rosc\.c\[2\]
*1183 wrapper\.rosc\.c\[3\]
*1184 wrapper\.rosc\.c\[4\]
*1185 wrapper\.rosc\.c\[5\]
*1186 wrapper\.rosc\.c\[6\]
*1187 wrapper\.rosc\.c\[7\]
*1188 wrapper\.rosc\.c\[8\]
*1189 wrapper\.rosc\.c\[9\]
*1190 wrapper\.rosc\.clk_div\[0\]
*1191 wrapper\.rosc\.pause
*1192 FILLER_0_109
*1193 FILLER_0_113
*1194 FILLER_0_125
*1195 FILLER_0_137
*1196 FILLER_0_141
*1197 FILLER_0_15
*1198 FILLER_0_153
*1199 FILLER_0_165
*1200 FILLER_0_169
*1201 FILLER_0_181
*1202 FILLER_0_193
*1203 FILLER_0_197
*1204 FILLER_0_209
*1205 FILLER_0_221
*1206 FILLER_0_225
*1207 FILLER_0_237
*1208 FILLER_0_249
*1209 FILLER_0_253
*1210 FILLER_0_265
*1211 FILLER_0_27
*1212 FILLER_0_277
*1213 FILLER_0_281
*1214 FILLER_0_29
*1215 FILLER_0_293
*1216 FILLER_0_3
*1217 FILLER_0_305
*1218 FILLER_0_309
*1219 FILLER_0_321
*1220 FILLER_0_333
*1221 FILLER_0_337
*1222 FILLER_0_41
*1223 FILLER_0_53
*1224 FILLER_0_57
*1225 FILLER_0_69
*1226 FILLER_0_81
*1227 FILLER_0_85
*1228 FILLER_0_97
*1229 FILLER_10_109
*1230 FILLER_10_121
*1231 FILLER_10_132
*1232 FILLER_10_141
*1233 FILLER_10_15
*1234 FILLER_10_154
*1235 FILLER_10_166
*1236 FILLER_10_178
*1237 FILLER_10_189
*1238 FILLER_10_195
*1239 FILLER_10_197
*1240 FILLER_10_201
*1241 FILLER_10_208
*1242 FILLER_10_220
*1243 FILLER_10_228
*1244 FILLER_10_234
*1245 FILLER_10_242
*1246 FILLER_10_249
*1247 FILLER_10_253
*1248 FILLER_10_258
*1249 FILLER_10_264
*1250 FILLER_10_27
*1251 FILLER_10_272
*1252 FILLER_10_279
*1253 FILLER_10_29
*1254 FILLER_10_291
*1255 FILLER_10_3
*1256 FILLER_10_303
*1257 FILLER_10_307
*1258 FILLER_10_309
*1259 FILLER_10_321
*1260 FILLER_10_333
*1261 FILLER_10_337
*1262 FILLER_10_41
*1263 FILLER_10_53
*1264 FILLER_10_65
*1265 FILLER_10_77
*1266 FILLER_10_83
*1267 FILLER_10_85
*1268 FILLER_10_97
*1269 FILLER_11_105
*1270 FILLER_11_111
*1271 FILLER_11_113
*1272 FILLER_11_120
*1273 FILLER_11_133
*1274 FILLER_11_143
*1275 FILLER_11_15
*1276 FILLER_11_156
*1277 FILLER_11_169
*1278 FILLER_11_176
*1279 FILLER_11_180
*1280 FILLER_11_189
*1281 FILLER_11_201
*1282 FILLER_11_213
*1283 FILLER_11_222
*1284 FILLER_11_225
*1285 FILLER_11_231
*1286 FILLER_11_237
*1287 FILLER_11_245
*1288 FILLER_11_257
*1289 FILLER_11_261
*1290 FILLER_11_27
*1291 FILLER_11_275
*1292 FILLER_11_279
*1293 FILLER_11_281
*1294 FILLER_11_293
*1295 FILLER_11_3
*1296 FILLER_11_305
*1297 FILLER_11_317
*1298 FILLER_11_329
*1299 FILLER_11_335
*1300 FILLER_11_337
*1301 FILLER_11_39
*1302 FILLER_11_51
*1303 FILLER_11_55
*1304 FILLER_11_57
*1305 FILLER_11_69
*1306 FILLER_11_81
*1307 FILLER_11_93
*1308 FILLER_12_109
*1309 FILLER_12_121
*1310 FILLER_12_130
*1311 FILLER_12_138
*1312 FILLER_12_141
*1313 FILLER_12_15
*1314 FILLER_12_159
*1315 FILLER_12_171
*1316 FILLER_12_183
*1317 FILLER_12_195
*1318 FILLER_12_197
*1319 FILLER_12_203
*1320 FILLER_12_211
*1321 FILLER_12_217
*1322 FILLER_12_223
*1323 FILLER_12_227
*1324 FILLER_12_235
*1325 FILLER_12_240
*1326 FILLER_12_248
*1327 FILLER_12_253
*1328 FILLER_12_265
*1329 FILLER_12_269
*1330 FILLER_12_27
*1331 FILLER_12_278
*1332 FILLER_12_29
*1333 FILLER_12_290
*1334 FILLER_12_3
*1335 FILLER_12_302
*1336 FILLER_12_309
*1337 FILLER_12_321
*1338 FILLER_12_333
*1339 FILLER_12_337
*1340 FILLER_12_41
*1341 FILLER_12_53
*1342 FILLER_12_65
*1343 FILLER_12_77
*1344 FILLER_12_83
*1345 FILLER_12_85
*1346 FILLER_12_97
*1347 FILLER_13_105
*1348 FILLER_13_111
*1349 FILLER_13_113
*1350 FILLER_13_125
*1351 FILLER_13_137
*1352 FILLER_13_143
*1353 FILLER_13_15
*1354 FILLER_13_151
*1355 FILLER_13_166
*1356 FILLER_13_169
*1357 FILLER_13_176
*1358 FILLER_13_184
*1359 FILLER_13_192
*1360 FILLER_13_199
*1361 FILLER_13_203
*1362 FILLER_13_211
*1363 FILLER_13_219
*1364 FILLER_13_223
*1365 FILLER_13_225
*1366 FILLER_13_234
*1367 FILLER_13_243
*1368 FILLER_13_251
*1369 FILLER_13_263
*1370 FILLER_13_27
*1371 FILLER_13_274
*1372 FILLER_13_281
*1373 FILLER_13_293
*1374 FILLER_13_3
*1375 FILLER_13_305
*1376 FILLER_13_317
*1377 FILLER_13_329
*1378 FILLER_13_335
*1379 FILLER_13_337
*1380 FILLER_13_39
*1381 FILLER_13_51
*1382 FILLER_13_55
*1383 FILLER_13_57
*1384 FILLER_13_69
*1385 FILLER_13_81
*1386 FILLER_13_93
*1387 FILLER_14_109
*1388 FILLER_14_113
*1389 FILLER_14_121
*1390 FILLER_14_138
*1391 FILLER_14_141
*1392 FILLER_14_15
*1393 FILLER_14_159
*1394 FILLER_14_174
*1395 FILLER_14_182
*1396 FILLER_14_188
*1397 FILLER_14_197
*1398 FILLER_14_205
*1399 FILLER_14_215
*1400 FILLER_14_223
*1401 FILLER_14_227
*1402 FILLER_14_238
*1403 FILLER_14_247
*1404 FILLER_14_251
*1405 FILLER_14_253
*1406 FILLER_14_261
*1407 FILLER_14_269
*1408 FILLER_14_27
*1409 FILLER_14_275
*1410 FILLER_14_287
*1411 FILLER_14_29
*1412 FILLER_14_299
*1413 FILLER_14_3
*1414 FILLER_14_307
*1415 FILLER_14_309
*1416 FILLER_14_321
*1417 FILLER_14_333
*1418 FILLER_14_337
*1419 FILLER_14_41
*1420 FILLER_14_53
*1421 FILLER_14_65
*1422 FILLER_14_77
*1423 FILLER_14_83
*1424 FILLER_14_85
*1425 FILLER_14_97
*1426 FILLER_15_105
*1427 FILLER_15_111
*1428 FILLER_15_113
*1429 FILLER_15_117
*1430 FILLER_15_125
*1431 FILLER_15_129
*1432 FILLER_15_134
*1433 FILLER_15_142
*1434 FILLER_15_15
*1435 FILLER_15_151
*1436 FILLER_15_163
*1437 FILLER_15_167
*1438 FILLER_15_169
*1439 FILLER_15_174
*1440 FILLER_15_182
*1441 FILLER_15_192
*1442 FILLER_15_204
*1443 FILLER_15_215
*1444 FILLER_15_222
*1445 FILLER_15_225
*1446 FILLER_15_234
*1447 FILLER_15_244
*1448 FILLER_15_251
*1449 FILLER_15_262
*1450 FILLER_15_268
*1451 FILLER_15_27
*1452 FILLER_15_278
*1453 FILLER_15_281
*1454 FILLER_15_293
*1455 FILLER_15_3
*1456 FILLER_15_305
*1457 FILLER_15_317
*1458 FILLER_15_329
*1459 FILLER_15_335
*1460 FILLER_15_337
*1461 FILLER_15_39
*1462 FILLER_15_51
*1463 FILLER_15_55
*1464 FILLER_15_57
*1465 FILLER_15_69
*1466 FILLER_15_81
*1467 FILLER_15_93
*1468 FILLER_16_109
*1469 FILLER_16_117
*1470 FILLER_16_126
*1471 FILLER_16_138
*1472 FILLER_16_141
*1473 FILLER_16_147
*1474 FILLER_16_15
*1475 FILLER_16_154
*1476 FILLER_16_162
*1477 FILLER_16_166
*1478 FILLER_16_170
*1479 FILLER_16_189
*1480 FILLER_16_195
*1481 FILLER_16_197
*1482 FILLER_16_205
*1483 FILLER_16_213
*1484 FILLER_16_220
*1485 FILLER_16_232
*1486 FILLER_16_238
*1487 FILLER_16_248
*1488 FILLER_16_253
*1489 FILLER_16_261
*1490 FILLER_16_27
*1491 FILLER_16_270
*1492 FILLER_16_276
*1493 FILLER_16_280
*1494 FILLER_16_287
*1495 FILLER_16_29
*1496 FILLER_16_299
*1497 FILLER_16_3
*1498 FILLER_16_307
*1499 FILLER_16_309
*1500 FILLER_16_321
*1501 FILLER_16_333
*1502 FILLER_16_337
*1503 FILLER_16_41
*1504 FILLER_16_53
*1505 FILLER_16_65
*1506 FILLER_16_77
*1507 FILLER_16_83
*1508 FILLER_16_85
*1509 FILLER_16_97
*1510 FILLER_17_105
*1511 FILLER_17_111
*1512 FILLER_17_113
*1513 FILLER_17_129
*1514 FILLER_17_135
*1515 FILLER_17_143
*1516 FILLER_17_15
*1517 FILLER_17_153
*1518 FILLER_17_162
*1519 FILLER_17_169
*1520 FILLER_17_177
*1521 FILLER_17_183
*1522 FILLER_17_190
*1523 FILLER_17_202
*1524 FILLER_17_211
*1525 FILLER_17_218
*1526 FILLER_17_225
*1527 FILLER_17_232
*1528 FILLER_17_244
*1529 FILLER_17_256
*1530 FILLER_17_267
*1531 FILLER_17_27
*1532 FILLER_17_278
*1533 FILLER_17_281
*1534 FILLER_17_3
*1535 FILLER_17_305
*1536 FILLER_17_317
*1537 FILLER_17_329
*1538 FILLER_17_335
*1539 FILLER_17_337
*1540 FILLER_17_39
*1541 FILLER_17_51
*1542 FILLER_17_55
*1543 FILLER_17_57
*1544 FILLER_17_69
*1545 FILLER_17_81
*1546 FILLER_17_93
*1547 FILLER_18_109
*1548 FILLER_18_118
*1549 FILLER_18_130
*1550 FILLER_18_137
*1551 FILLER_18_141
*1552 FILLER_18_148
*1553 FILLER_18_15
*1554 FILLER_18_156
*1555 FILLER_18_162
*1556 FILLER_18_174
*1557 FILLER_18_181
*1558 FILLER_18_190
*1559 FILLER_18_197
*1560 FILLER_18_209
*1561 FILLER_18_237
*1562 FILLER_18_249
*1563 FILLER_18_253
*1564 FILLER_18_258
*1565 FILLER_18_268
*1566 FILLER_18_27
*1567 FILLER_18_278
*1568 FILLER_18_287
*1569 FILLER_18_29
*1570 FILLER_18_299
*1571 FILLER_18_3
*1572 FILLER_18_307
*1573 FILLER_18_309
*1574 FILLER_18_321
*1575 FILLER_18_333
*1576 FILLER_18_337
*1577 FILLER_18_41
*1578 FILLER_18_53
*1579 FILLER_18_65
*1580 FILLER_18_77
*1581 FILLER_18_83
*1582 FILLER_18_85
*1583 FILLER_18_97
*1584 FILLER_19_105
*1585 FILLER_19_111
*1586 FILLER_19_113
*1587 FILLER_19_123
*1588 FILLER_19_131
*1589 FILLER_19_139
*1590 FILLER_19_143
*1591 FILLER_19_149
*1592 FILLER_19_15
*1593 FILLER_19_160
*1594 FILLER_19_169
*1595 FILLER_19_177
*1596 FILLER_19_192
*1597 FILLER_19_201
*1598 FILLER_19_209
*1599 FILLER_19_215
*1600 FILLER_19_222
*1601 FILLER_19_225
*1602 FILLER_19_235
*1603 FILLER_19_243
*1604 FILLER_19_250
*1605 FILLER_19_27
*1606 FILLER_19_278
*1607 FILLER_19_281
*1608 FILLER_19_293
*1609 FILLER_19_3
*1610 FILLER_19_305
*1611 FILLER_19_317
*1612 FILLER_19_329
*1613 FILLER_19_335
*1614 FILLER_19_337
*1615 FILLER_19_39
*1616 FILLER_19_51
*1617 FILLER_19_55
*1618 FILLER_19_57
*1619 FILLER_19_69
*1620 FILLER_19_81
*1621 FILLER_19_93
*1622 FILLER_1_105
*1623 FILLER_1_111
*1624 FILLER_1_113
*1625 FILLER_1_125
*1626 FILLER_1_137
*1627 FILLER_1_149
*1628 FILLER_1_15
*1629 FILLER_1_161
*1630 FILLER_1_167
*1631 FILLER_1_169
*1632 FILLER_1_181
*1633 FILLER_1_191
*1634 FILLER_1_200
*1635 FILLER_1_208
*1636 FILLER_1_215
*1637 FILLER_1_223
*1638 FILLER_1_225
*1639 FILLER_1_237
*1640 FILLER_1_249
*1641 FILLER_1_261
*1642 FILLER_1_27
*1643 FILLER_1_273
*1644 FILLER_1_279
*1645 FILLER_1_281
*1646 FILLER_1_293
*1647 FILLER_1_3
*1648 FILLER_1_305
*1649 FILLER_1_317
*1650 FILLER_1_329
*1651 FILLER_1_335
*1652 FILLER_1_337
*1653 FILLER_1_39
*1654 FILLER_1_51
*1655 FILLER_1_55
*1656 FILLER_1_57
*1657 FILLER_1_69
*1658 FILLER_1_81
*1659 FILLER_1_93
*1660 FILLER_20_109
*1661 FILLER_20_127
*1662 FILLER_20_138
*1663 FILLER_20_141
*1664 FILLER_20_148
*1665 FILLER_20_15
*1666 FILLER_20_161
*1667 FILLER_20_171
*1668 FILLER_20_180
*1669 FILLER_20_191
*1670 FILLER_20_195
*1671 FILLER_20_197
*1672 FILLER_20_208
*1673 FILLER_20_216
*1674 FILLER_20_224
*1675 FILLER_20_235
*1676 FILLER_20_247
*1677 FILLER_20_251
*1678 FILLER_20_253
*1679 FILLER_20_261
*1680 FILLER_20_266
*1681 FILLER_20_27
*1682 FILLER_20_274
*1683 FILLER_20_279
*1684 FILLER_20_29
*1685 FILLER_20_291
*1686 FILLER_20_3
*1687 FILLER_20_303
*1688 FILLER_20_307
*1689 FILLER_20_309
*1690 FILLER_20_321
*1691 FILLER_20_333
*1692 FILLER_20_337
*1693 FILLER_20_41
*1694 FILLER_20_53
*1695 FILLER_20_65
*1696 FILLER_20_77
*1697 FILLER_20_83
*1698 FILLER_20_85
*1699 FILLER_20_97
*1700 FILLER_21_105
*1701 FILLER_21_111
*1702 FILLER_21_113
*1703 FILLER_21_121
*1704 FILLER_21_129
*1705 FILLER_21_141
*1706 FILLER_21_15
*1707 FILLER_21_153
*1708 FILLER_21_162
*1709 FILLER_21_169
*1710 FILLER_21_174
*1711 FILLER_21_187
*1712 FILLER_21_191
*1713 FILLER_21_195
*1714 FILLER_21_221
*1715 FILLER_21_225
*1716 FILLER_21_236
*1717 FILLER_21_243
*1718 FILLER_21_262
*1719 FILLER_21_27
*1720 FILLER_21_270
*1721 FILLER_21_278
*1722 FILLER_21_281
*1723 FILLER_21_290
*1724 FILLER_21_3
*1725 FILLER_21_302
*1726 FILLER_21_314
*1727 FILLER_21_326
*1728 FILLER_21_334
*1729 FILLER_21_337
*1730 FILLER_21_39
*1731 FILLER_21_51
*1732 FILLER_21_55
*1733 FILLER_21_57
*1734 FILLER_21_69
*1735 FILLER_21_81
*1736 FILLER_21_93
*1737 FILLER_22_109
*1738 FILLER_22_121
*1739 FILLER_22_126
*1740 FILLER_22_133
*1741 FILLER_22_139
*1742 FILLER_22_141
*1743 FILLER_22_149
*1744 FILLER_22_15
*1745 FILLER_22_154
*1746 FILLER_22_160
*1747 FILLER_22_164
*1748 FILLER_22_177
*1749 FILLER_22_186
*1750 FILLER_22_194
*1751 FILLER_22_197
*1752 FILLER_22_203
*1753 FILLER_22_209
*1754 FILLER_22_218
*1755 FILLER_22_231
*1756 FILLER_22_238
*1757 FILLER_22_242
*1758 FILLER_22_250
*1759 FILLER_22_253
*1760 FILLER_22_27
*1761 FILLER_22_287
*1762 FILLER_22_29
*1763 FILLER_22_299
*1764 FILLER_22_3
*1765 FILLER_22_307
*1766 FILLER_22_309
*1767 FILLER_22_321
*1768 FILLER_22_333
*1769 FILLER_22_337
*1770 FILLER_22_41
*1771 FILLER_22_53
*1772 FILLER_22_65
*1773 FILLER_22_77
*1774 FILLER_22_83
*1775 FILLER_22_85
*1776 FILLER_22_93
*1777 FILLER_22_97
*1778 FILLER_23_110
*1779 FILLER_23_113
*1780 FILLER_23_119
*1781 FILLER_23_127
*1782 FILLER_23_133
*1783 FILLER_23_141
*1784 FILLER_23_15
*1785 FILLER_23_150
*1786 FILLER_23_157
*1787 FILLER_23_166
*1788 FILLER_23_169
*1789 FILLER_23_174
*1790 FILLER_23_186
*1791 FILLER_23_195
*1792 FILLER_23_203
*1793 FILLER_23_212
*1794 FILLER_23_225
*1795 FILLER_23_231
*1796 FILLER_23_239
*1797 FILLER_23_243
*1798 FILLER_23_248
*1799 FILLER_23_256
*1800 FILLER_23_268
*1801 FILLER_23_27
*1802 FILLER_23_277
*1803 FILLER_23_281
*1804 FILLER_23_285
*1805 FILLER_23_291
*1806 FILLER_23_297
*1807 FILLER_23_3
*1808 FILLER_23_314
*1809 FILLER_23_326
*1810 FILLER_23_334
*1811 FILLER_23_337
*1812 FILLER_23_39
*1813 FILLER_23_51
*1814 FILLER_23_55
*1815 FILLER_23_57
*1816 FILLER_23_69
*1817 FILLER_23_81
*1818 FILLER_23_89
*1819 FILLER_23_93
*1820 FILLER_24_101
*1821 FILLER_24_121
*1822 FILLER_24_134
*1823 FILLER_24_141