*SPEF "ieee 1481-1999"
*DESIGN "tt_um_urish_simon"
*DATE "11:11:11 Fri 11 11, 1111"
*VENDOR "OpenRCX"
*PROGRAM "Parallel Extraction"
*VERSION "1.0"
*DESIGN_FLOW "NAME_SCOPE LOCAL" "PIN_CAP NONE"
*DIVIDER /
*DELIMITER :
*BUS_DELIMITER []
*T_UNIT 1 NS
*C_UNIT 1 PF
*R_UNIT 1 OHM
*L_UNIT 1 HENRY

*NAME_MAP
*1 clk
*2 ena
*3 rst_n
*4 ui_in[0]
*5 ui_in[1]
*6 ui_in[2]
*7 ui_in[3]
*8 ui_in[4]
*9 ui_in[5]
*10 ui_in[6]
*11 ui_in[7]
*12 uio_in[0]
*13 uio_in[1]
*14 uio_in[2]
*15 uio_in[3]
*16 uio_in[4]
*17 uio_in[5]
*18 uio_in[6]
*19 uio_in[7]
*20 net6
*21 net7
*22 net8
*23 net9
*24 net10
*25 net11
*26 net12
*27 net13
*28 net14
*29 net15
*30 net16
*31 net17
*32 net18
*33 net19
*34 net20
*35 net21
*36 uo_out[0]
*37 uo_out[1]
*38 uo_out[2]
*39 uo_out[3]
*40 uo_out[4]
*41 net22
*42 net23
*43 net24
*46 _0000_
*47 _0001_
*48 _0002_
*49 _0003_
*50 _0004_
*51 _0005_
*52 _0006_
*53 _0007_
*54 _0008_
*55 _0009_
*56 _0010_
*57 _0011_
*58 _0012_
*59 _0013_
*60 _0014_
*61 _0015_
*62 _0016_
*63 _0017_
*64 _0018_
*65 _0019_
*66 _0020_
*67 _0021_
*68 _0022_
*69 _0023_
*70 _0024_
*71 _0025_
*72 _0026_
*73 _0027_
*74 _0028_
*75 _0029_
*76 _0030_
*77 _0031_
*78 _0032_
*79 _0033_
*80 _0034_
*81 _0035_
*82 _0036_
*83 _0037_
*84 _0038_
*85 _0039_
*86 _0040_
*87 _0041_
*88 _0042_
*89 _0043_
*90 _0044_
*91 _0045_
*92 _0046_
*93 _0047_
*94 _0048_
*95 _0049_
*96 _0050_
*97 _0051_
*98 _0052_
*99 _0053_
*100 _0054_
*101 _0055_
*102 _0056_
*103 _0057_
*104 _0058_
*105 _0059_
*106 _0060_
*107 _0061_
*108 _0062_
*109 _0063_
*110 _0064_
*111 _0065_
*112 _0066_
*113 _0067_
*114 _0068_
*115 _0069_
*116 _0070_
*117 _0071_
*118 _0072_
*119 _0073_
*120 _0074_
*121 _0075_
*122 _0076_
*123 _0077_
*124 _0078_
*125 _0079_
*126 _0080_
*127 _0081_
*128 _0082_
*129 _0083_
*130 _0084_
*131 _0085_
*132 _0086_
*133 _0087_
*134 _0088_
*135 _0089_
*136 _0090_
*137 _0091_
*138 _0092_
*139 _0093_
*140 _0094_
*141 _0095_
*142 _0096_
*143 _0097_
*144 _0098_
*145 _0099_
*146 _0100_
*147 _0101_
*148 _0102_
*149 _0103_
*150 _0104_
*151 _0105_
*152 _0106_
*153 _0107_
*154 _0108_
*155 _0109_
*156 _0110_
*157 _0111_
*158 _0112_
*159 _0113_
*160 _0114_
*161 _0115_
*162 _0116_
*163 _0117_
*164 _0118_
*165 _0119_
*166 _0120_
*167 _0121_
*168 _0122_
*169 _0123_
*170 _0124_
*171 _0125_
*172 _0126_
*173 _0127_
*174 _0128_
*175 _0129_
*176 _0130_
*177 _0131_
*178 _0132_
*179 _0133_
*180 _0134_
*181 _0135_
*182 _0136_
*183 _0137_
*184 _0138_
*185 _0139_
*186 _0140_
*187 _0141_
*188 _0142_
*189 _0143_
*190 _0144_
*191 _0145_
*192 _0146_
*193 _0147_
*194 _0148_
*195 _0149_
*196 _0150_
*197 _0151_
*198 _0152_
*199 _0153_
*200 _0154_
*201 _0155_
*202 _0156_
*203 _0157_
*204 _0158_
*205 _0159_
*206 _0160_
*207 _0161_
*208 _0162_
*209 _0163_
*210 _0164_
*211 _0165_
*212 _0166_
*213 _0167_
*214 _0168_
*215 _0169_
*216 _0170_
*217 _0171_
*218 _0172_
*219 _0173_
*220 _0174_
*221 _0175_
*222 _0176_
*223 _0177_
*224 _0178_
*225 _0179_
*226 _0180_
*227 _0181_
*228 _0182_
*229 _0183_
*230 _0184_
*231 _0185_
*232 _0186_
*233 _0187_
*234 _0188_
*235 _0189_
*236 _0190_
*237 _0191_
*238 _0192_
*239 _0193_
*240 _0194_
*241 _0195_
*242 _0196_
*243 _0197_
*244 _0198_
*245 _0199_
*246 _0200_
*247 _0201_
*248 _0202_
*249 _0203_
*250 _0204_
*251 _0205_
*252 _0206_
*253 _0207_
*254 _0208_
*255 _0209_
*256 _0210_
*257 _0211_
*258 _0212_
*259 _0213_
*260 _0214_
*261 _0215_
*262 _0216_
*263 _0217_
*264 _0218_
*265 _0219_
*266 _0220_
*267 _0221_
*268 _0222_
*269 _0223_
*270 _0224_
*271 _0225_
*272 _0226_
*273 _0227_
*274 _0228_
*275 _0229_
*276 _0230_
*277 _0231_
*278 _0232_
*279 _0233_
*280 _0234_
*281 _0235_
*282 _0236_
*283 _0237_
*284 _0238_
*285 _0239_
*286 _0240_
*287 _0241_
*288 _0242_
*289 _0243_
*290 _0244_
*291 _0245_
*292 _0246_
*293 _0247_
*294 _0248_
*295 _0249_
*296 _0250_
*297 _0251_
*298 _0252_
*299 _0253_
*300 _0254_
*301 _0255_
*302 _0256_
*303 _0257_
*304 _0258_
*305 _0259_
*306 _0260_
*307 _0261_
*308 _0262_
*309 _0263_
*310 _0264_
*311 _0265_
*312 _0266_
*313 _0267_
*314 _0268_
*315 _0269_
*316 _0270_
*317 _0271_
*318 _0272_
*319 _0273_
*320 _0274_
*321 _0275_
*322 _0276_
*323 _0277_
*324 _0278_
*325 _0279_
*326 _0280_
*327 _0281_
*328 _0282_
*329 _0283_
*330 _0284_
*331 _0285_
*332 _0286_
*333 _0287_
*334 _0288_
*335 _0289_
*336 _0290_
*337 _0291_
*338 _0292_
*339 _0293_
*340 _0294_
*341 _0295_
*342 _0296_
*343 _0297_
*344 _0298_
*345 _0299_
*346 _0300_
*347 _0301_
*348 _0302_
*349 _0303_
*350 _0304_
*351 _0305_
*352 _0306_
*353 _0307_
*354 _0308_
*355 _0309_
*356 _0310_
*357 _0311_
*358 _0312_
*359 _0313_
*360 _0314_
*361 _0315_
*362 _0316_
*363 _0317_
*364 _0318_
*365 _0319_
*366 _0320_
*367 _0321_
*368 _0322_
*369 _0323_
*370 _0324_
*371 _0325_
*372 _0326_
*373 _0327_
*374 _0328_
*375 _0329_
*376 _0330_
*377 _0331_
*378 _0332_
*379 _0333_
*380 _0334_
*381 _0335_
*382 _0336_
*383 _0337_
*384 _0338_
*385 _0339_
*386 _0340_
*387 _0341_
*388 _0342_
*389 _0343_
*390 _0344_
*391 _0345_
*392 _0346_
*393 _0347_
*394 _0348_
*395 _0349_
*396 _0350_
*397 _0351_
*398 _0352_
*399 _0353_
*400 _0354_
*401 _0355_
*402 _0356_
*403 _0357_
*404 _0358_
*405 _0359_
*406 _0360_
*407 _0361_
*408 _0362_
*409 _0363_
*410 _0364_
*411 _0365_
*412 _0366_
*413 _0367_
*414 _0368_
*415 _0369_
*416 _0370_
*417 _0371_
*418 _0372_
*419 _0373_
*420 _0374_
*421 _0375_
*422 _0376_
*423 _0377_
*424 _0378_
*425 _0379_
*426 _0380_
*427 _0381_
*428 _0382_
*429 _0383_
*430 _0384_
*431 _0385_
*432 _0386_
*433 _0387_
*434 _0388_
*435 _0389_
*436 _0390_
*437 _0391_
*438 _0392_
*439 _0393_
*440 _0394_
*441 _0395_
*442 _0396_
*443 _0397_
*444 _0398_
*445 _0399_
*446 _0400_
*447 _0401_
*448 _0402_
*449 _0403_
*450 _0404_
*451 _0405_
*452 _0406_
*453 _0407_
*454 _0408_
*455 _0409_
*456 _0410_
*457 _0411_
*458 _0412_
*459 _0413_
*460 _0414_
*461 _0415_
*462 _0416_
*463 _0417_
*464 _0418_
*465 _0419_
*466 _0420_
*467 _0421_
*468 _0422_
*469 _0423_
*470 _0424_
*471 _0425_
*472 _0426_
*473 _0427_
*474 _0428_
*475 _0429_
*476 _0430_
*477 _0431_
*478 _0432_
*479 _0433_
*480 _0434_
*481 _0435_
*482 _0436_
*483 _0437_
*484 _0438_
*485 _0439_
*486 _0440_
*487 _0441_
*488 _0442_
*489 _0443_
*490 _0444_
*491 _0445_
*492 _0446_
*493 _0447_
*494 _0448_
*495 _0449_
*496 _0450_
*497 _0451_
*498 _0452_
*499 _0453_
*500 _0454_
*501 _0455_
*502 _0456_
*503 _0457_
*504 _0458_
*505 _0459_
*506 _0460_
*507 _0461_
*508 _0462_
*509 _0463_
*510 _0464_
*511 _0465_
*512 _0466_
*513 _0467_
*514 _0468_
*515 _0469_
*516 _0470_
*517 _0471_
*518 _0472_
*519 _0473_
*520 _0474_
*521 _0475_
*522 _0476_
*523 _0477_
*524 _0478_
*525 _0479_
*526 _0480_
*527 _0481_
*528 _0482_
*529 _0483_
*530 _0484_
*531 _0485_
*532 _0486_
*533 _0487_
*534 _0488_
*535 _0489_
*536 _0490_
*537 _0491_
*538 _0492_
*539 _0493_
*540 _0494_
*541 _0495_
*542 _0496_
*543 _0497_
*544 _0498_
*545 _0499_
*546 _0500_
*547 _0501_
*548 _0502_
*549 _0503_
*550 _0504_
*551 _0505_
*552 _0506_
*553 _0507_
*554 _0508_
*555 _0509_
*556 _0510_
*557 _0511_
*558 _0512_
*559 _0513_
*560 _0514_
*561 _0515_
*562 _0516_
*563 _0517_
*564 _0518_
*565 _0519_
*566 _0520_
*567 _0521_
*568 _0522_
*569 _0523_
*570 _0524_
*571 _0525_
*572 _0526_
*573 _0527_
*574 _0528_
*575 _0529_
*576 _0530_
*577 _0531_
*578 _0532_
*579 _0533_
*580 _0534_
*581 _0535_
*582 _0536_
*583 _0537_
*584 _0538_
*585 _0539_
*586 _0540_
*587 _0541_
*588 _0542_
*589 _0543_
*590 _0544_
*591 _0545_
*592 _0546_
*593 _0547_
*594 _0548_
*595 _0549_
*596 _0550_
*597 _0551_
*598 _0552_
*599 _0553_
*600 _0554_
*601 _0555_
*602 _0556_
*603 _0557_
*604 _0558_
*605 _0559_
*606 _0560_
*607 _0561_
*608 _0562_
*609 _0563_
*610 _0564_
*611 _0565_
*612 _0566_
*613 _0567_
*614 _0568_
*615 _0569_
*616 _0570_
*617 _0571_
*618 _0572_
*619 _0573_
*620 _0574_
*621 _0575_
*622 _0576_
*623 _0577_
*624 _0578_
*625 _0579_
*626 _0580_
*627 _0581_
*628 _0582_
*629 _0583_
*630 _0584_
*631 _0585_
*632 _0586_
*633 _0587_
*634 _0588_
*635 _0589_
*636 _0590_
*637 _0591_
*638 _0592_
*639 _0593_
*640 _0594_
*641 _0595_
*642 _0596_
*643 _0597_
*644 _0598_
*645 _0599_
*646 _0600_
*647 _0601_
*648 _0602_
*649 _0603_
*650 _0604_
*651 _0605_
*652 _0606_
*653 _0607_
*654 _0608_
*655 _0609_
*656 _0610_
*657 _0611_
*658 _0612_
*659 _0613_
*660 _0614_
*661 _0615_
*662 _0616_
*663 _0617_
*664 _0618_
*665 _0619_
*666 _0620_
*667 _0621_
*668 _0622_
*669 _0623_
*670 _0624_
*671 _0625_
*672 _0626_
*673 _0627_
*674 _0628_
*675 _0629_
*676 _0630_
*677 _0631_
*678 _0632_
*679 _0633_
*680 _0634_
*681 _0635_
*682 _0636_
*683 _0637_
*684 _0638_
*685 _0639_
*686 _0640_
*687 _0641_
*688 _0642_
*689 _0643_
*690 _0644_
*691 _0645_
*692 _0646_
*693 _0647_
*694 _0648_
*695 _0649_
*696 _0650_
*697 _0651_
*698 _0652_
*699 _0653_
*700 _0654_
*701 _0655_
*702 _0656_
*703 _0657_
*704 _0658_
*705 _0659_
*706 _0660_
*707 _0661_
*708 _0662_
*709 _0663_
*710 _0664_
*711 _0665_
*712 _0666_
*713 _0667_
*714 _0668_
*715 _0669_
*716 _0670_
*717 _0671_
*718 _0672_
*719 _0673_
*720 _0674_
*721 _0675_
*722 _0676_
*723 _0677_
*724 _0678_
*725 _0679_
*726 _0680_
*727 _0681_
*728 _0682_
*729 _0683_
*730 _0684_
*731 _0685_
*732 _0686_
*733 _0687_
*734 _0688_
*735 _0689_
*736 _0690_
*737 _0691_
*738 _0692_
*739 _0693_
*740 _0694_
*741 _0695_
*742 _0696_
*743 _0697_
*744 _0698_
*745 _0699_
*746 _0700_
*747 _0701_
*748 _0702_
*749 _0703_
*750 _0704_
*751 _0705_
*752 _0706_
*753 _0707_
*754 _0708_
*755 _0709_
*756 _0710_
*757 _0711_
*758 _0712_
*759 _0713_
*760 _0714_
*761 _0715_
*762 _0716_
*763 _0717_
*764 _0718_
*765 _0719_
*766 _0720_
*767 _0721_
*768 _0722_
*769 _0723_
*770 _0724_
*771 _0725_
*772 _0726_
*773 _0727_
*774 _0728_
*775 _0729_
*776 _0730_
*777 _0731_
*778 _0732_
*779 _0733_
*780 _0734_
*781 _0735_
*782 _0736_
*783 _0737_
*784 _0738_
*785 _0739_
*786 _0740_
*787 _0741_
*788 _0742_
*789 _0743_
*790 _0744_
*791 _0745_
*792 _0746_
*793 _0747_
*794 _0748_
*795 _0749_
*796 _0750_
*797 _0751_
*798 _0752_
*799 _0753_
*800 _0754_
*801 _0755_
*802 _0756_
*803 _0757_
*804 _0758_
*805 _0759_
*806 _0760_
*807 _0761_
*808 _0762_
*809 _0763_
*810 _0764_
*811 _0765_
*812 _0766_
*813 _0767_
*814 _0768_
*815 _0769_
*816 _0770_
*817 _0771_
*818 _0772_
*819 _0773_
*820 _0774_
*821 _0775_
*822 _0776_
*823 _0777_
*824 _0778_
*825 _0779_
*826 _0780_
*827 _0781_
*828 _0782_
*829 _0783_
*830 _0784_
*831 _0785_
*832 _0786_
*833 _0787_
*834 _0788_
*835 _0789_
*836 _0790_
*837 _0791_
*838 _0792_
*839 _0793_
*840 _0794_
*841 _0795_
*842 _0796_
*843 _0797_
*844 _0798_
*845 _0799_
*846 _0800_
*847 _0801_
*848 _0802_
*849 _0803_
*850 _0804_
*851 _0805_
*852 _0806_
*853 _0807_
*854 _0808_
*855 _0809_
*856 _0810_
*857 _0811_
*858 _0812_
*859 _0813_
*860 _0814_
*861 _0815_
*862 _0816_
*863 _0817_
*864 _0818_
*865 _0819_
*866 _0820_
*867 _0821_
*868 _0822_
*869 _0823_
*870 _0824_
*871 _0825_
*872 _0826_
*873 _0827_
*874 _0828_
*875 _0829_
*876 _0830_
*877 _0831_
*878 _0832_
*879 _0833_
*880 _0834_
*881 _0835_
*882 _0836_
*883 _0837_
*884 _0838_
*885 _0839_
*886 _0840_
*887 _0841_
*888 _0842_
*889 _0843_
*890 _0844_
*891 _0845_
*892 _0846_
*893 _0847_
*894 _0848_
*895 _0849_
*896 _0850_
*897 _0851_
*898 _0852_
*899 _0853_
*900 _0854_
*901 _0855_
*902 _0856_
*903 _0857_
*904 _0858_
*905 _0859_
*906 _0860_
*907 _0861_
*908 _0862_
*909 _0863_
*910 _0864_
*911 _0865_
*912 _0866_
*913 _0867_
*914 _0868_
*915 _0869_
*916 _0870_
*917 _0871_
*918 clknet_0_clk
*919 clknet_4_0_0_clk
*920 clknet_4_10_0_clk
*921 clknet_4_11_0_clk
*922 clknet_4_12_0_clk
*923 clknet_4_13_0_clk
*924 clknet_4_14_0_clk
*925 clknet_4_15_0_clk
*926 clknet_4_1_0_clk
*927 clknet_4_2_0_clk
*928 clknet_4_3_0_clk
*929 clknet_4_4_0_clk
*930 clknet_4_5_0_clk
*931 clknet_4_6_0_clk
*932 clknet_4_7_0_clk
*933 clknet_4_8_0_clk
*934 clknet_4_9_0_clk
*935 net1
*936 net2
*937 net3
*938 net4
*939 net5
*940 simon1\.millis_counter\[0\]
*941 simon1\.millis_counter\[1\]
*942 simon1\.millis_counter\[2\]
*943 simon1\.millis_counter\[3\]
*944 simon1\.millis_counter\[4\]
*945 simon1\.millis_counter\[5\]
*946 simon1\.millis_counter\[6\]
*947 simon1\.millis_counter\[7\]
*948 simon1\.millis_counter\[8\]
*949 simon1\.millis_counter\[9\]
*950 simon1\.next_random\[0\]
*951 simon1\.next_random\[1\]
*952 simon1\.play1\.freq\[0\]
*953 simon1\.play1\.freq\[1\]
*954 simon1\.play1\.freq\[2\]
*955 simon1\.play1\.freq\[3\]
*956 simon1\.play1\.freq\[4\]
*957 simon1\.play1\.freq\[5\]
*958 simon1\.play1\.freq\[6\]
*959 simon1\.play1\.freq\[7\]
*960 simon1\.play1\.freq\[8\]
*961 simon1\.play1\.freq\[9\]
*962 simon1\.play1\.sound
*963 simon1\.play1\.tick_counter\[0\]
*964 simon1\.play1\.tick_counter\[10\]
*965 simon1\.play1\.tick_counter\[11\]
*966 simon1\.play1\.tick_counter\[12\]
*967 simon1\.play1\.tick_counter\[13\]
*968 simon1\.play1\.tick_counter\[14\]
*969 simon1\.play1\.tick_counter\[15\]
*970 simon1\.play1\.tick_counter\[16\]
*971 simon1\.play1\.tick_counter\[17\]
*972 simon1\.play1\.tick_counter\[18\]
*973 simon1\.play1\.tick_counter\[19\]
*974 simon1\.play1\.tick_counter\[1\]
*975 simon1\.play1\.tick_counter\[20\]
*976 simon1\.play1\.tick_counter\[21\]
*977 simon1\.play1\.tick_counter\[22\]
*978 simon1\.play1\.tick_counter\[23\]
*979 simon1\.play1\.tick_counter\[24\]
*980 simon1\.play1\.tick_counter\[25\]
*981 simon1\.play1\.tick_counter\[26\]
*982 simon1\.play1\.tick_counter\[27\]
*983 simon1\.play1\.tick_counter\[28\]
*984 simon1\.play1\.tick_counter\[29\]
*985 simon1\.play1\.tick_counter\[2\]
*986 simon1\.play1\.tick_counter\[30\]
*987 simon1\.play1\.tick_counter\[31\]
*988 simon1\.play1\.tick_counter\[3\]
*989 simon1\.play1\.tick_counter\[4\]
*990 simon1\.play1\.tick_counter\[5\]
*991 simon1\.play1\.tick_counter\[6\]
*992 simon1\.play1\.tick_counter\[7\]
*993 simon1\.play1\.tick_counter\[8\]
*994 simon1\.play1\.tick_counter\[9\]
*995 simon1\.seq\[0\]\[0\]
*996 simon1\.seq\[0\]\[1\]
*997 simon1\.seq\[10\]\[0\]
*998 simon1\.seq\[10\]\[1\]
*999 simon1\.seq\[11\]\[0\]
*1000 simon1\.seq\[11\]\[1\]
*1001 simon1\.seq\[12\]\[0\]
*1002 simon1\.seq\[12\]\[1\]
*1003 simon1\.seq\[13\]\[0\]
*1004 simon1\.seq\[13\]\[1\]
*1005 simon1\.seq\[14\]\[0\]
*1006 simon1\.seq\[14\]\[1\]
*1007 simon1\.seq\[15\]\[0\]
*1008 simon1\.seq\[15\]\[1\]
*1009 simon1\.seq\[16\]\[0\]
*1010 simon1\.seq\[16\]\[1\]
*1011 simon1\.seq\[17\]\[0\]
*1012 simon1\.seq\[17\]\[1\]
*1013 simon1\.seq\[18\]\[0\]
*1014 simon1\.seq\[18\]\[1\]
*1015 simon1\.seq\[19\]\[0\]
*1016 simon1\.seq\[19\]\[1\]
*1017 simon1\.seq\[1\]\[0\]
*1018 simon1\.seq\[1\]\[1\]
*1019 simon1\.seq\[20\]\[0\]
*1020 simon1\.seq\[20\]\[1\]
*1021 simon1\.seq\[21\]\[0\]
*1022 simon1\.seq\[21\]\[1\]
*1023 simon1\.seq\[22\]\[0\]
*1024 simon1\.seq\[22\]\[1\]
*1025 simon1\.seq\[23\]\[0\]
*1026 simon1\.seq\[23\]\[1\]
*1027 simon1\.seq\[24\]\[0\]
*1028 simon1\.seq\[24\]\[1\]
*1029 simon1\.seq\[25\]\[0\]
*1030 simon1\.seq\[25\]\[1\]
*1031 simon1\.seq\[26\]\[0\]
*1032 simon1\.seq\[26\]\[1\]
*1033 simon1\.seq\[27\]\[0\]
*1034 simon1\.seq\[27\]\[1\]
*1035 simon1\.seq\[28\]\[0\]
*1036 simon1\.seq\[28\]\[1\]
*1037 simon1\.seq\[29\]\[0\]
*1038 simon1\.seq\[29\]\[1\]
*1039 simon1\.seq\[2\]\[0\]
*1040 simon1\.seq\[2\]\[1\]
*1041 simon1\.seq\[30\]\[0\]
*1042 simon1\.seq\[30\]\[1\]
*1043 simon1\.seq\[31\]\[0\]
*1044 simon1\.seq\[31\]\[1\]
*1045 simon1\.seq\[3\]\[0\]
*1046 simon1\.seq\[3\]\[1\]
*1047 simon1\.seq\[4\]\[0\]
*1048 simon1\.seq\[4\]\[1\]
*1049 simon1\.seq\[5\]\[0\]
*1050 simon1\.seq\[5\]\[1\]
*1051 simon1\.seq\[6\]\[0\]
*1052 simon1\.seq\[6\]\[1\]
*1053 simon1\.seq\[7\]\[0\]
*1054 simon1\.seq\[7\]\[1\]
*1055 simon1\.seq\[8\]\[0\]
*1056 simon1\.seq\[8\]\[1\]
*1057 simon1\.seq\[9\]\[0\]
*1058 simon1\.seq\[9\]\[1\]
*1059 simon1\.seq_counter\[0\]
*1060 simon1\.seq_counter\[1\]
*1061 simon1\.seq_counter\[2\]
*1062 simon1\.seq_counter\[3\]
*1063 simon1\.seq_counter\[4\]
*1064 simon1\.seq_length\[0\]
*1065 simon1\.seq_length\[1\]
*1066 simon1\.seq_length\[2\]
*1067 simon1\.seq_length\[3\]
*1068 simon1\.seq_length\[4\]
*1069 simon1\.state\[0\]
*1070 simon1\.state\[1\]
*1071 simon1\.state\[2\]
*1072 simon1\.state\[3\]
*1073 simon1\.state\[4\]
*1074 simon1\.state\[5\]
*1075 simon1\.state\[6\]
*1076 simon1\.state\[7\]
*1077 simon1\.tick_counter\[0\]
*1078 simon1\.tick_counter\[10\]
*1079 simon1\.tick_counter\[11\]
*1080 simon1\.tick_counter\[12\]
*1081 simon1\.tick_counter\[13\]
*1082 simon1\.tick_counter\[14\]
*1083 simon1\.tick_counter\[15\]
*1084 simon1\.tick_counter\[1\]
*1085 simon1\.tick_counter\[2\]
*1086 simon1\.tick_counter\[3\]
*1087 simon1\.tick_counter\[4\]
*1088 simon1\.tick_counter\[5\]
*1089 simon1\.tick_counter\[6\]
*1090 simon1\.tick_counter\[7\]
*1091 simon1\.tick_counter\[8\]
*1092 simon1\.tick_counter\[9\]
*1093 simon1\.tone_sequence_counter\[0\]
*1094 simon1\.tone_sequence_counter\[1\]
*1095 simon1\.tone_sequence_counter\[2\]
*1096 simon1\.user_input\[0\]
*1097 simon1\.user_input\[1\]
*1098 FILLER_0_109
*1099 FILLER_0_113
*1100 FILLER_0_125
*1101 FILLER_0_137
*1102 FILLER_0_141
*1103 FILLER_0_15
*1104 FILLER_0_153
*1105 FILLER_0_165
*1106 FILLER_0_169
*1107 FILLER_0_181
*1108 FILLER_0_193
*1109 FILLER_0_197
*1110 FILLER_0_209
*1111 FILLER_0_221
*1112 FILLER_0_225
*1113 FILLER_0_237
*1114 FILLER_0_249
*1115 FILLER_0_253
*1116 FILLER_0_265
*1117 FILLER_0_27
*1118 FILLER_0_277
*1119 FILLER_0_281
*1120 FILLER_0_29
*1121 FILLER_0_293
*1122 FILLER_0_3
*1123 FILLER_0_305
*1124 FILLER_0_309
*1125 FILLER_0_321
*1126 FILLER_0_333
*1127 FILLER_0_337
*1128 FILLER_0_41
*1129 FILLER_0_53
*1130 FILLER_0_57
*1131 FILLER_0_69
*1132 FILLER_0_81
*1133 FILLER_0_85
*1134 FILLER_0_97
*1135 FILLER_10_109
*1136 FILLER_10_121
*1137 FILLER_10_133
*1138 FILLER_10_139
*1139 FILLER_10_141
*1140 FILLER_10_15
*1141 FILLER_10_153
*1142 FILLER_10_165
*1143 FILLER_10_177
*1144 FILLER_10_189
*1145 FILLER_10_195
*1146 FILLER_10_197
*1147 FILLER_10_209
*1148 FILLER_10_221
*1149 FILLER_10_233
*1150 FILLER_10_245
*1151 FILLER_10_251
*1152 FILLER_10_253
*1153 FILLER_10_265
*1154 FILLER_10_27
*1155 FILLER_10_277
*1156 FILLER_10_289
*1157 FILLER_10_29
*1158 FILLER_10_3
*1159 FILLER_10_301
*1160 FILLER_10_307
*1161 FILLER_10_309
*1162 FILLER_10_321
*1163 FILLER_10_333
*1164 FILLER_10_337
*1165 FILLER_10_41
*1166 FILLER_10_53
*1167 FILLER_10_65
*1168 FILLER_10_77
*1169 FILLER_10_83
*1170 FILLER_10_85
*1171 FILLER_10_97
*1172 FILLER_11_105
*1173 FILLER_11_111
*1174 FILLER_11_113
*1175 FILLER_11_125
*1176 FILLER_11_137
*1177 FILLER_11_149
*1178 FILLER_11_15
*1179 FILLER_11_161
*1180 FILLER_11_167
*1181 FILLER_11_169
*1182 FILLER_11_181
*1183 FILLER_11_193
*1184 FILLER_11_205
*1185 FILLER_11_217
*1186 FILLER_11_223
*1187 FILLER_11_225
*1188 FILLER_11_237
*1189 FILLER_11_249
*1190 FILLER_11_266
*1191 FILLER_11_27
*1192 FILLER_11_277
*1193 FILLER_11_281
*1194 FILLER_11_292
*1195 FILLER_11_3
*1196 FILLER_11_304
*1197 FILLER_11_316
*1198 FILLER_11_328
*1199 FILLER_11_337
*1200 FILLER_11_39
*1201 FILLER_11_51
*1202 FILLER_11_55
*1203 FILLER_11_57
*1204 FILLER_11_69
*1205 FILLER_11_81
*1206 FILLER_11_93
*1207 FILLER_12_109
*1208 FILLER_12_121
*1209 FILLER_12_133
*1210 FILLER_12_139
*1211 FILLER_12_141
*1212 FILLER_12_15
*1213 FILLER_12_153
*1214 FILLER_12_165
*1215 FILLER_12_177
*1216 FILLER_12_189
*1217 FILLER_12_195
*1218 FILLER_12_197
*1219 FILLER_12_209
*1220 FILLER_12_217
*1221 FILLER_12_223
*1222 FILLER_12_238
*1223 FILLER_12_246
*1224 FILLER_12_250
*1225 FILLER_12_253
*1226 FILLER_12_264
*1227 FILLER_12_27
*1228 FILLER_12_277
*1229 FILLER_12_29
*1230 FILLER_12_290
*1231 FILLER_12_297
*1232 FILLER_12_3
*1233 FILLER_12_305
*1234 FILLER_12_309
*1235 FILLER_12_321
*1236 FILLER_12_333
*1237 FILLER_12_337
*1238 FILLER_12_41
*1239 FILLER_12_53
*1240 FILLER_12_65
*1241 FILLER_12_77
*1242 FILLER_12_83
*1243 FILLER_12_85
*1244 FILLER_12_97
*1245 FILLER_13_105
*1246 FILLER_13_111
*1247 FILLER_13_113
*1248 FILLER_13_125
*1249 FILLER_13_137
*1250 FILLER_13_149
*1251 FILLER_13_15
*1252 FILLER_13_157
*1253 FILLER_13_165
*1254 FILLER_13_169
*1255 FILLER_13_181
*1256 FILLER_13_193
*1257 FILLER_13_205
*1258 FILLER_13_213
*1259 FILLER_13_219
*1260 FILLER_13_223
*1261 FILLER_13_225
*1262 FILLER_13_236
*1263 FILLER_13_243
*1264 FILLER_13_251
*1265 FILLER_13_262
*1266 FILLER_13_27
*1267 FILLER_13_271
*1268 FILLER_13_278
*1269 FILLER_13_281
*1270 FILLER_13_285
*1271 FILLER_13_291
*1272 FILLER_13_3
*1273 FILLER_13_303
*1274 FILLER_13_307
*1275 FILLER_13_317
*1276 FILLER_13_329
*1277 FILLER_13_335
*1278 FILLER_13_337
*1279 FILLER_13_39
*1280 FILLER_13_51
*1281 FILLER_13_55
*1282 FILLER_13_57
*1283 FILLER_13_69
*1284 FILLER_13_81
*1285 FILLER_13_93
*1286 FILLER_14_109
*1287 FILLER_14_121
*1288 FILLER_14_133
*1289 FILLER_14_139
*1290 FILLER_14_141
*1291 FILLER_14_15
*1292 FILLER_14_153
*1293 FILLER_14_160
*1294 FILLER_14_166
*1295 FILLER_14_171
*1296 FILLER_14_178
*1297 FILLER_14_190
*1298 FILLER_14_197
*1299 FILLER_14_209
*1300 FILLER_14_219
*1301 FILLER_14_232
*1302 FILLER_14_247
*1303 FILLER_14_251
*1304 FILLER_14_253
*1305 FILLER_14_262
*1306 FILLER_14_27
*1307 FILLER_14_287
*1308 FILLER_14_29
*1309 FILLER_14_293
*1310 FILLER_14_297
*1311 FILLER_14_3
*1312 FILLER_14_306
*1313 FILLER_14_309
*1314 FILLER_14_320
*1315 FILLER_14_327
*1316 FILLER_14_335
*1317 FILLER_14_41
*1318 FILLER_14_53
*1319 FILLER_14_65
*1320 FILLER_14_77
*1321 FILLER_14_83
*1322 FILLER_14_85
*1323 FILLER_14_97
*1324 FILLER_15_105
*1325 FILLER_15_111
*1326 FILLER_15_113
*1327 FILLER_15_125
*1328 FILLER_15_137
*1329 FILLER_15_144
*1330 FILLER_15_15
*1331 FILLER_15_153
*1332 FILLER_15_161
*1333 FILLER_15_167
*1334 FILLER_15_169
*1335 FILLER_15_177
*1336 FILLER_15_189
*1337 FILLER_15_197
*1338 FILLER_15_202
*1339 FILLER_15_215
*1340 FILLER_15_222
*1341 FILLER_15_225
*1342 FILLER_15_237
*1343 FILLER_15_247
*1344 FILLER_15_254
*1345 FILLER_15_261
*1346 FILLER_15_27
*1347 FILLER_15_278
*1348 FILLER_15_281
*1349 FILLER_15_292
*1350 FILLER_15_3
*1351 FILLER_15_301
*1352 FILLER_15_309
*1353 FILLER_15_316
*1354 FILLER_15_329
*1355 FILLER_15_335
*1356 FILLER_15_337
*1357 FILLER_15_39
*1358 FILLER_15_51
*1359 FILLER_15_55
*1360 FILLER_15_57
*1361 FILLER_15_69
*1362 FILLER_15_81
*1363 FILLER_15_93
*1364 FILLER_16_109
*1365 FILLER_16_121
*1366 FILLER_16_133
*1367 FILLER_16_139
*1368 FILLER_16_141
*1369 FILLER_16_147
*1370 FILLER_16_15
*1371 FILLER_16_152
*1372 FILLER_16_164
*1373 FILLER_16_176
*1374 FILLER_16_188
*1375 FILLER_16_197
*1376 FILLER_16_205
*1377 FILLER_16_210
*1378 FILLER_16_214
*1379 FILLER_16_231
*1380 FILLER_16_238
*1381 FILLER_16_250
*1382 FILLER_16_253
*1383 FILLER_16_261
*1384 FILLER_16_27
*1385 FILLER_16_284
*1386 FILLER_16_29
*1387 FILLER_16_3
*1388 FILLER_16_305
*1389 FILLER_16_309
*1390 FILLER_16_316
*1391 FILLER_16_320
*1392 FILLER_16_330
*1393 FILLER_16_41
*1394 FILLER_16_53
*1395 FILLER_16_65
*1396 FILLER_16_77
*1397 FILLER_16_83
*1398 FILLER_16_85
*1399 FILLER_16_97
*1400 FILLER_17_105
*1401 FILLER_17_111
*1402 FILLER_17_113
*1403 FILLER_17_125
*1404 FILLER_17_137
*1405 FILLER_17_15
*1406 FILLER_17_154
*1407 FILLER_17_165
*1408 FILLER_17_169
*1409 FILLER_17_187
*1410 FILLER_17_199
*1411 FILLER_17_219
*1412 FILLER_17_223
*1413 FILLER_17_225
*1414 FILLER_17_247
*1415 FILLER_17_267
*1416 FILLER_17_27
*1417 FILLER_17_274
*1418 FILLER_17_281
*1419 FILLER_17_289
*1420 FILLER_17_3
*1421 FILLER_17_307
*1422 FILLER_17_314
*1423 FILLER_17_322
*1424 FILLER_17_327
*1425 FILLER_17_334
*1426 FILLER_17_337
*1427 FILLER_17_39
*1428 FILLER_17_51
*1429 FILLER_17_55
*1430 FILLER_17_57
*1431 FILLER_17_69
*1432 FILLER_17_81
*1433 FILLER_17_93
*1434 FILLER_18_109
*1435 FILLER_18_121
*1436 FILLER_18_138
*1437 FILLER_18_141
*1438 FILLER_18_15
*1439 FILLER_18_163
*1440 FILLER_18_171
*1441 FILLER_18_189
*1442 FILLER_18_195
*1443 FILLER_18_197
*1444 FILLER_18_215
*1445 FILLER_18_235
*1446 FILLER_18_247
*1447 FILLER_18_251
*1448 FILLER_18_253
*1449 FILLER_18_27
*1450 FILLER_18_271
*1451 FILLER_18_29
*1452 FILLER_18_291
*1453 FILLER_18_295
*1454 FILLER_18_3
*1455 FILLER_18_305
*1456 FILLER_18_309
*1457 FILLER_18_327
*1458 FILLER_18_335
*1459 FILLER_18_41
*1460 FILLER_18_53
*1461 FILLER_18_65
*1462 FILLER_18_77
*1463 FILLER_18_83
*1464 FILLER_18_85
*1465 FILLER_18_97
*1466 FILLER_19_105
*1467 FILLER_19_111
*1468 FILLER_19_113
*1469 FILLER_19_125
*1470 FILLER_19_142
*1471 FILLER_19_15
*1472 FILLER_19_154
*1473 FILLER_19_158
*1474 FILLER_19_162
*1475 FILLER_19_169
*1476 FILLER_19_176
*1477 FILLER_19_198
*1478 FILLER_19_210
*1479 FILLER_19_222
*1480 FILLER_19_225
*1481 FILLER_19_250
*1482 FILLER_19_27
*1483 FILLER_19_270
*1484 FILLER_19_277
*1485 FILLER_19_281
*1486 FILLER_19_3
*1487 FILLER_19_305
*1488 FILLER_19_330
*1489 FILLER_19_337
*1490 FILLER_19_39
*1491 FILLER_19_51
*1492 FILLER_19_55
*1493 FILLER_19_57
*1494 FILLER_19_72
*1495 FILLER_19_84
*1496 FILLER_19_92
*1497 FILLER_1_105
*1498 FILLER_1_111
*1499 FILLER_1_113
*1500 FILLER_1_125
*1501 FILLER_1_137
*1502 FILLER_1_149
*1503 FILLER_1_15
*1504 FILLER_1_161
*1505 FILLER_1_167
*1506 FILLER_1_169
*1507 FILLER_1_181
*1508 FILLER_1_193
*1509 FILLER_1_205
*1510 FILLER_1_217
*1511 FILLER_1_223
*1512 FILLER_1_225
*1513 FILLER_1_237
*1514 FILLER_1_249
*1515 FILLER_1_261
*1516 FILLER_1_27
*1517 FILLER_1_273
*1518 FILLER_1_279
*1519 FILLER_1_281
*1520 FILLER_1_293
*1521 FILLER_1_3
*1522 FILLER_1_305
*1523 FILLER_1_317
*1524 FILLER_1_329
*1525 FILLER_1_335
*1526 FILLER_1_337
*1527 FILLER_1_39
*1528 FILLER_1_51
*1529 FILLER_1_55
*1530 FILLER_1_57
*1531 FILLER_1_69
*1532 FILLER_1_81
*1533 FILLER_1_93
*1534 FILLER_20_108
*1535 FILLER_20_117
*1536 FILLER_20_125
*1537 FILLER_20_137
*1538 FILLER_20_141
*1539 FILLER_20_147
*1540 FILLER_20_15
*1541 FILLER_20_155
*1542 FILLER_20_175
*1543 FILLER_20_183
*1544 FILLER_20_190
*1545 FILLER_20_197
*1546 FILLER_20_209
*1547 FILLER_20_221
*1548 FILLER_20_229
*1549 FILLER_20_248
*1550 FILLER_20_253
*1551 FILLER_20_265
*1552 FILLER_20_27
*1553 FILLER_20_287
*1554 FILLER_20_29
*1555 FILLER_20_293
*1556 FILLER_20_297
*1557 FILLER_20_3
*1558 FILLER_20_305
*1559 FILLER_20_309
*1560 FILLER_20_317
*1561 FILLER_20_336
*1562 FILLER_20_41
*1563 FILLER_20_53
*1564 FILLER_20_65
*1565 FILLER_20_74
*1566 FILLER_20_81
*1567 FILLER_20_85
*1568 FILLER_20_93
*1569 FILLER_21_101
*1570 FILLER_21_110
*1571 FILLER_21_113
*1572 FILLER_21_130
*1573 FILLER_21_142
*1574 FILLER_21_15
*1575 FILLER_21_154
*1576 FILLER_21_166
*1577 FILLER_21_169
*1578 FILLER_21_178
*1579 FILLER_21_188
*1580 FILLER_21_198
*1581 FILLER_21_204
*1582 FILLER_21_221
*1583 FILLER_21_225
*1584 FILLER_21_250
*1585 FILLER_21_262
*1586 FILLER_21_27
*1587 FILLER_21_270
*1588 FILLER_21_277
*1589 FILLER_21_281
*1590 FILLER_21_293
*1591 FILLER_21_297
*1592 FILLER_21_3
*1593 FILLER_21_314
*1594 FILLER_21_326
*1595 FILLER_21_334
*1596 FILLER_21_337
*1597 FILLER_21_39
*1598 FILLER_21_51
*1599 FILLER_21_55
*1600 FILLER_21_57
*1601 FILLER_21_65
*1602 FILLER_21_74
*1603 FILLER_21_80
*1604 FILLER_21_84
*1605 FILLER_21_95
*1606 FILLER_22_103
*1607 FILLER_22_114
*1608 FILLER_22_138
*1609 FILLER_22_141
*1610 FILLER_22_15
*1611 FILLER_22_159
*1612 FILLER_22_170
*1613 FILLER_22_179
*1614 FILLER_22_191
*1615 FILLER_22_195
*1616 FILLER_22_197
*1617 FILLER_22_205
*1618 FILLER_22_210
*1619 FILLER_22_216
*1620 FILLER_22_226
*1621 FILLER_22_238
*1622 FILLER_22_250
*1623 FILLER_22_253
*1624 FILLER_22_258
*1625 FILLER_22_27
*1626 FILLER_22_280
*1627 FILLER_22_29
*1628 FILLER_22_3
*1629 FILLER_22_300
*1630 FILLER_22_309
*1631 FILLER_22_317
*1632 FILLER_22_336
*1633 FILLER_22_41
*1634 FILLER_22_53
*1635 FILLER_22_65
*1636 FILLER_22_78
*1637 FILLER_22_85
*1638 FILLER_22_90
*1639 FILLER_23_101
*1640 FILLER_23_110
*1641 FILLER_23_113
*1642 FILLER_23_120
*1643 FILLER_23_133
*1644 FILLER_23_139
*1645 FILLER_23_15
*1646 FILLER_23_156
*1647 FILLER_23_169
*1648 FILLER_23_174
*1649 FILLER_23_186
*1650 FILLER_23_198
*1651 FILLER_23_210
*1652 FILLER_23_220
*1653 FILLER_23_225
*1654 FILLER_23_230
*1655 FILLER_23_250
*1656 FILLER_23_27
*1657 FILLER_23_270
*1658 FILLER_23_278
*1659 FILLER_23_281
*1660 FILLER_23_287
*1661 FILLER_23_3
*1662 FILLER_23_307
*1663 FILLER_23_316
*1664 FILLER_23_325
*1665 FILLER_23_332
*1666 FILLER_23_337
*1667 FILLER_23_39
*1668 FILLER_23_51
*1669 FILLER_23_55
*1670 FILLER_23_57
*1671 FILLER_23_61
*1672 FILLER_23_69
*1673 FILLER_23_79
*1674 FILLER_23_87
*1675 FILLER_23_92
*1676 FILLER_24_103
*1677 FILLER_24_111
*1678 FILLER_24_120
*1679 FILLER_24_129
*1680 FILLER_24_137
*1681 FILLER_24_141
*1682 FILLER_24_15
*1683 FILLER_24_153
*1684 FILLER_24_157
*1685 FILLER_24_174
*1686 FILLER_24_186
*1687 FILLER_24_194
*1688 FILLER_24_197
*1689 FILLER_24_215
*1690 FILLER_24_235
*1691 FILLER_24_242
*1692 FILLER_24_250
*1693 FILLER_24_253
*1694 FILLER_24_263
*1695 FILLER_24_27
*1696 FILLER_24_273
*1697 FILLER_24_282
*1698 FILLER_24_29
*1699 FILLER_24_290
*1700 FILLER_24_3
*1701 FILLER_24_302
*1702 FILLER_24_309
*1703 FILLER_24_332
*1704 FILLER_24_41
*1705 FILLER_24_53
*1706 FILLER_24_65
*1707 FILLER_24_73
*1708 FILLER_24_79
*1709 FILLER_24_83
*1710 FILLER_24_85
*1711 FILLER_24_91
*1712 FILLER_25_109
*1713 FILLER_25_113
*1714 FILLER_25_124
*1715 FILLER_25_136
*1716 FILLER_25_148
*1717 FILLER_25_15
*1718 FILLER_25_160
*1719 FILLER_25_169
*1720 FILLER_25_187
*1721 FILLER_25_196
*1722 FILLER_25_211
*1723 FILLER_25_220
*1724 FILLER_25_225
*1725 FILLER_25_229
*1726 FILLER_25_235
*1727 FILLER_25_242
*1728 FILLER_25_265
*1729 FILLER_25_27
*1730 FILLER_25_277
*1731 FILLER_25_281
*1732 FILLER_25_289
*1733 FILLER_25_298
*1734 FILLER_25_3
*1735 FILLER_25_323
*1736 FILLER_25_332
*1737 FILLER_25_337
*1738 FILLER_25_39
*1739 FILLER_25_51
*1740 FILLER_25_55
*1741 FILLER_25_57
*1742 FILLER_25_69
*1743 FILLER_25_73
*1744 FILLER_25_81
*1745 FILLER_25_87
*1746 FILLER_25_99
*1747 FILLER_26_102
*1748 FILLER_26_111
*1749 FILLER_26_119
*1750 FILLER_26_126
*1751 FILLER_26_134
*1752 FILLER_26_138
*1753 FILLER_26_141
*1754 FILLER_26_15
*1755 FILLER_26_159
*1756 FILLER_26_167
*1757 FILLER_26_185
*1758 FILLER_26_193
*1759 FILLER_26_197
*1760 FILLER_26_215
*1761 FILLER_26_228
*1762 FILLER_26_241
*1763 FILLER_26_249
*1764 FILLER_26_253
*1765 FILLER_26_261
*1766 FILLER_26_267
*1767 FILLER_26_27
*1768 FILLER_26_282
*1769 FILLER_26_29
*1770 FILLER_26_3
*1771 FILLER_26_302
*1772 FILLER_26_309
*1773 FILLER_26_333
*1774 FILLER_26_337
*1775 FILLER_26_41
*1776 FILLER_26_53
*1777 FILLER_26_65
*1778 FILLER_26_81
*1779 FILLER_26_85
*1780 FILLER_26_93