*SPEF "ieee 1481-1999"
*DESIGN "tt_um_loopback"
*DATE "11:11:11 Fri 11 11, 1111"
*VENDOR "OpenRCX"
*PROGRAM "Parallel Extraction"
*VERSION "1.0"
*DESIGN_FLOW "NAME_SCOPE LOCAL" "PIN_CAP NONE"
*DIVIDER /
*DELIMITER :
*BUS_DELIMITER []
*T_UNIT 1 NS
*C_UNIT 1 PF
*R_UNIT 1 OHM
*L_UNIT 1 HENRY

*NAME_MAP
*3 clk
*4 ena
*5 rst_n
*6 ui_in[0]
*7 ui_in[1]
*8 ui_in[2]
*9 ui_in[3]
*10 ui_in[4]
*11 ui_in[5]
*12 ui_in[6]
*13 ui_in[7]
*14 uio_in[0]
*15 uio_in[1]
*16 uio_in[2]
*17 uio_in[3]
*18 uio_in[4]
*19 uio_in[5]
*20 uio_in[6]
*21 uio_in[7]
*22 net13
*23 net14
*24 net15
*25 net16
*26 net1
*27 net2
*28 net3
*29 net4
*30 net5
*31 net6
*32 net7
*33 net8
*34 net9
*35 net10
*36 net11
*37 net12
*38 uo_out[0]
*39 uo_out[1]
*40 uo_out[2]
*41 uo_out[3]
*42 uo_out[4]
*43 uo_out[5]
*44 uo_out[6]
*45 uo_out[7]
*46 _00_
*47 FILLER_0_109
*48 FILLER_0_113
*49 FILLER_0_125
*50 FILLER_0_137
*51 FILLER_0_141
*52 FILLER_0_15
*53 FILLER_0_153
*54 FILLER_0_165
*55 FILLER_0_169
*56 FILLER_0_181
*57 FILLER_0_193
*58 FILLER_0_197
*59 FILLER_0_209
*60 FILLER_0_221
*61 FILLER_0_225
*62 FILLER_0_237
*63 FILLER_0_249
*64 FILLER_0_253
*65 FILLER_0_265
*66 FILLER_0_27
*67 FILLER_0_277
*68 FILLER_0_281
*69 FILLER_0_29
*70 FILLER_0_293
*71 FILLER_0_3
*72 FILLER_0_305
*73 FILLER_0_309
*74 FILLER_0_321
*75 FILLER_0_333
*76 FILLER_0_337
*77 FILLER_0_41
*78 FILLER_0_53
*79 FILLER_0_57
*80 FILLER_0_69
*81 FILLER_0_81
*82 FILLER_0_85
*83 FILLER_0_97
*84 FILLER_10_109
*85 FILLER_10_121
*86 FILLER_10_133
*87 FILLER_10_139
*88 FILLER_10_141
*89 FILLER_10_15
*90 FILLER_10_153
*91 FILLER_10_165
*92 FILLER_10_177
*93 FILLER_10_189
*94 FILLER_10_195
*95 FILLER_10_197
*96 FILLER_10_209
*97 FILLER_10_221
*98 FILLER_10_233
*99 FILLER_10_245
*100 FILLER_10_251
*101 FILLER_10_253
*102 FILLER_10_265
*103 FILLER_10_27
*104 FILLER_10_277
*105 FILLER_10_289
*106 FILLER_10_29
*107 FILLER_10_3
*108 FILLER_10_301
*109 FILLER_10_307
*110 FILLER_10_309
*111 FILLER_10_321
*112 FILLER_10_333
*113 FILLER_10_337
*114 FILLER_10_41
*115 FILLER_10_53
*116 FILLER_10_65
*117 FILLER_10_77
*118 FILLER_10_83
*119 FILLER_10_85
*120 FILLER_10_97
*121 FILLER_11_105
*122 FILLER_11_111
*123 FILLER_11_113
*124 FILLER_11_125
*125 FILLER_11_137
*126 FILLER_11_149
*127 FILLER_11_15
*128 FILLER_11_161
*129 FILLER_11_167
*130 FILLER_11_169
*131 FILLER_11_181
*132 FILLER_11_193
*133 FILLER_11_205
*134 FILLER_11_217
*135 FILLER_11_223
*136 FILLER_11_225
*137 FILLER_11_237
*138 FILLER_11_249
*139 FILLER_11_261
*140 FILLER_11_27
*141 FILLER_11_273
*142 FILLER_11_279
*143 FILLER_11_281
*144 FILLER_11_293
*145 FILLER_11_3
*146 FILLER_11_305
*147 FILLER_11_317
*148 FILLER_11_329
*149 FILLER_11_335
*150 FILLER_11_337
*151 FILLER_11_39
*152 FILLER_11_51
*153 FILLER_11_55
*154 FILLER_11_57
*155 FILLER_11_69
*156 FILLER_11_81
*157 FILLER_11_93
*158 FILLER_12_109
*159 FILLER_12_121
*160 FILLER_12_133
*161 FILLER_12_139
*162 FILLER_12_141
*163 FILLER_12_15
*164 FILLER_12_153
*165 FILLER_12_165
*166 FILLER_12_177
*167 FILLER_12_189
*168 FILLER_12_195
*169 FILLER_12_197
*170 FILLER_12_209
*171 FILLER_12_221
*172 FILLER_12_233
*173 FILLER_12_245
*174 FILLER_12_251
*175 FILLER_12_253
*176 FILLER_12_265
*177 FILLER_12_27
*178 FILLER_12_277
*179 FILLER_12_289
*180 FILLER_12_29
*181 FILLER_12_3
*182 FILLER_12_301
*183 FILLER_12_307
*184 FILLER_12_309
*185 FILLER_12_321
*186 FILLER_12_333
*187 FILLER_12_337
*188 FILLER_12_41
*189 FILLER_12_53
*190 FILLER_12_65
*191 FILLER_12_77
*192 FILLER_12_83
*193 FILLER_12_85
*194 FILLER_12_97
*195 FILLER_13_105
*196 FILLER_13_111
*197 FILLER_13_113
*198 FILLER_13_125
*199 FILLER_13_137
*200 FILLER_13_149
*201 FILLER_13_15
*202 FILLER_13_161
*203 FILLER_13_167
*204 FILLER_13_169
*205 FILLER_13_181
*206 FILLER_13_193
*207 FILLER_13_205
*208 FILLER_13_217
*209 FILLER_13_223
*210 FILLER_13_225
*211 FILLER_13_237
*212 FILLER_13_249
*213 FILLER_13_261
*214 FILLER_13_27
*215 FILLER_13_273
*216 FILLER_13_279
*217 FILLER_13_281
*218 FILLER_13_293
*219 FILLER_13_3
*220 FILLER_13_305
*221 FILLER_13_317
*222 FILLER_13_329
*223 FILLER_13_335
*224 FILLER_13_337
*225 FILLER_13_39
*226 FILLER_13_51
*227 FILLER_13_55
*228 FILLER_13_57
*229 FILLER_13_69
*230 FILLER_13_81
*231 FILLER_13_93
*232 FILLER_14_109
*233 FILLER_14_121
*234 FILLER_14_133
*235 FILLER_14_139
*236 FILLER_14_141
*237 FILLER_14_15
*238 FILLER_14_153
*239 FILLER_14_165
*240 FILLER_14_177
*241 FILLER_14_189
*242 FILLER_14_195
*243 FILLER_14_197
*244 FILLER_14_209
*245 FILLER_14_221
*246 FILLER_14_233
*247 FILLER_14_245
*248 FILLER_14_251
*249 FILLER_14_253
*250 FILLER_14_265
*251 FILLER_14_27
*252 FILLER_14_277
*253 FILLER_14_289
*254 FILLER_14_29
*255 FILLER_14_3
*256 FILLER_14_301
*257 FILLER_14_307
*258 FILLER_14_309
*259 FILLER_14_321
*260 FILLER_14_333
*261 FILLER_14_337
*262 FILLER_14_41
*263 FILLER_14_53
*264 FILLER_14_65
*265 FILLER_14_77
*266 FILLER_14_83
*267 FILLER_14_85
*268 FILLER_14_97
*269 FILLER_15_105
*270 FILLER_15_111
*271 FILLER_15_113
*272 FILLER_15_125
*273 FILLER_15_137
*274 FILLER_15_149
*275 FILLER_15_15
*276 FILLER_15_161
*277 FILLER_15_167
*278 FILLER_15_169
*279 FILLER_15_181
*280 FILLER_15_193
*281 FILLER_15_205
*282 FILLER_15_217
*283 FILLER_15_223
*284 FILLER_15_225
*285 FILLER_15_237
*286 FILLER_15_249
*287 FILLER_15_261
*288 FILLER_15_27
*289 FILLER_15_273
*290 FILLER_15_279
*291 FILLER_15_281
*292 FILLER_15_293
*293 FILLER_15_3
*294 FILLER_15_305
*295 FILLER_15_317
*296 FILLER_15_329
*297 FILLER_15_335
*298 FILLER_15_337
*299 FILLER_15_39
*300 FILLER_15_51
*301 FILLER_15_55
*302 FILLER_15_57
*303 FILLER_15_69
*304 FILLER_15_81
*305 FILLER_15_93
*306 FILLER_16_109
*307 FILLER_16_121
*308 FILLER_16_133
*309 FILLER_16_139
*310 FILLER_16_141
*311 FILLER_16_15
*312 FILLER_16_153
*313 FILLER_16_165
*314 FILLER_16_177
*315 FILLER_16_189
*316 FILLER_16_195
*317 FILLER_16_197
*318 FILLER_16_209
*319 FILLER_16_221
*320 FILLER_16_233
*321 FILLER_16_245
*322 FILLER_16_251
*323 FILLER_16_253
*324 FILLER_16_265
*325 FILLER_16_27
*326 FILLER_16_277
*327 FILLER_16_289
*328 FILLER_16_29
*329 FILLER_16_3
*330 FILLER_16_301
*331 FILLER_16_307
*332 FILLER_16_309
*333 FILLER_16_321
*334 FILLER_16_333
*335 FILLER_16_337
*336 FILLER_16_41
*337 FILLER_16_53
*338 FILLER_16_65
*339 FILLER_16_77
*340 FILLER_16_83
*341 FILLER_16_85
*342 FILLER_16_97
*343 FILLER_17_105
*344 FILLER_17_111
*345 FILLER_17_113
*346 FILLER_17_125
*347 FILLER_17_137
*348 FILLER_17_149
*349 FILLER_17_15
*350 FILLER_17_161
*351 FILLER_17_167
*352 FILLER_17_169
*353 FILLER_17_181
*354 FILLER_17_193
*355 FILLER_17_205
*356 FILLER_17_217
*357 FILLER_17_223
*358 FILLER_17_225
*359 FILLER_17_237
*360 FILLER_17_249
*361 FILLER_17_261
*362 FILLER_17_27
*363 FILLER_17_273
*364 FILLER_17_279
*365 FILLER_17_281
*366 FILLER_17_293
*367 FILLER_17_3
*368 FILLER_17_305
*369 FILLER_17_317
*370 FILLER_17_329
*371 FILLER_17_335
*372 FILLER_17_337
*373 FILLER_17_39
*374 FILLER_17_51
*375 FILLER_17_55
*376 FILLER_17_57
*377 FILLER_17_69
*378 FILLER_17_81
*379 FILLER_17_93
*380 FILLER_18_109
*381 FILLER_18_121
*382 FILLER_18_133
*383 FILLER_18_139
*384 FILLER_18_141
*385 FILLER_18_15
*386 FILLER_18_153
*387 FILLER_18_165
*388 FILLER_18_177
*389 FILLER_18_189
*390 FILLER_18_195
*391 FILLER_18_197
*392 FILLER_18_209
*393 FILLER_18_221
*394 FILLER_18_233
*395 FILLER_18_245
*396 FILLER_18_251
*397 FILLER_18_253
*398 FILLER_18_265
*399 FILLER_18_27
*400 FILLER_18_277
*401 FILLER_18_289
*402 FILLER_18_29
*403 FILLER_18_3
*404 FILLER_18_301
*405 FILLER_18_307
*406 FILLER_18_309
*407 FILLER_18_321
*408 FILLER_18_333
*409 FILLER_18_337
*410 FILLER_18_41
*411 FILLER_18_53
*412 FILLER_18_65
*413 FILLER_18_77
*414 FILLER_18_83
*415 FILLER_18_85
*416 FILLER_18_97
*417 FILLER_19_105
*418 FILLER_19_111
*419 FILLER_19_113
*420 FILLER_19_125
*421 FILLER_19_137
*422 FILLER_19_149
*423 FILLER_19_15
*424 FILLER_19_161
*425 FILLER_19_167
*426 FILLER_19_169
*427 FILLER_19_181
*428 FILLER_19_193
*429 FILLER_19_205
*430 FILLER_19_217
*431 FILLER_19_223
*432 FILLER_19_225
*433 FILLER_19_237
*434 FILLER_19_249
*435 FILLER_19_261
*436 FILLER_19_27
*437 FILLER_19_273
*438 FILLER_19_279
*439 FILLER_19_281
*440 FILLER_19_293
*441 FILLER_19_3
*442 FILLER_19_305
*443 FILLER_19_317
*444 FILLER_19_329
*445 FILLER_19_335
*446 FILLER_19_337
*447 FILLER_19_39
*448 FILLER_19_51
*449 FILLER_19_55
*450 FILLER_19_57
*451 FILLER_19_69
*452 FILLER_19_81
*453 FILLER_19_93
*454 FILLER_1_105
*455 FILLER_1_111
*456 FILLER_1_113
*457 FILLER_1_125
*458 FILLER_1_137
*459 FILLER_1_149
*460 FILLER_1_15
*461 FILLER_1_161
*462 FILLER_1_167
*463 FILLER_1_169
*464 FILLER_1_181
*465 FILLER_1_193
*466 FILLER_1_205
*467 FILLER_1_217
*468 FILLER_1_223
*469 FILLER_1_225
*470 FILLER_1_237
*471 FILLER_1_249
*472 FILLER_1_261
*473 FILLER_1_27
*474 FILLER_1_273
*475 FILLER_1_279
*476 FILLER_1_281
*477 FILLER_1_293
*478 FILLER_1_3
*479 FILLER_1_305
*480 FILLER_1_317
*481 FILLER_1_329
*482 FILLER_1_335
*483 FILLER_1_337
*484 FILLER_1_39
*485 FILLER_1_51
*486 FILLER_1_55
*487 FILLER_1_57
*488 FILLER_1_69
*489 FILLER_1_81
*490 FILLER_1_93
*491 FILLER_20_109
*492 FILLER_20_121
*493 FILLER_20_133
*494 FILLER_20_139
*495 FILLER_20_141
*496 FILLER_20_15
*497 FILLER_20_153
*498 FILLER_20_165
*499 FILLER_20_177
*500 FILLER_20_189
*501 FILLER_20_195
*502 FILLER_20_197
*503 FILLER_20_209
*504 FILLER_20_221
*505 FILLER_20_233
*506 FILLER_20_245
*507 FILLER_20_251
*508 FILLER_20_253
*509 FILLER_20_265
*510 FILLER_20_27
*511 FILLER_20_277
*512 FILLER_20_289
*513 FILLER_20_29
*514 FILLER_20_3
*515 FILLER_20_301
*516 FILLER_20_307
*517 FILLER_20_309
*518 FILLER_20_321
*519 FILLER_20_333
*520 FILLER_20_337
*521 FILLER_20_41
*522 FILLER_20_53
*523 FILLER_20_65
*524 FILLER_20_77
*525 FILLER_20_83
*526 FILLER_20_85
*527 FILLER_20_97
*528 FILLER_21_105
*529 FILLER_21_111
*530 FILLER_21_113
*531 FILLER_21_125
*532 FILLER_21_137
*533 FILLER_21_149
*534 FILLER_21_15
*535 FILLER_21_161
*536 FILLER_21_167
*537 FILLER_21_169
*538 FILLER_21_181
*539 FILLER_21_193
*540 FILLER_21_205
*541 FILLER_21_217
*542 FILLER_21_223
*543 FILLER_21_225
*544 FILLER_21_237
*545 FILLER_21_249
*546 FILLER_21_261
*547 FILLER_21_27
*548 FILLER_21_273
*549 FILLER_21_279
*550 FILLER_21_281
*551 FILLER_21_293
*552 FILLER_21_3
*553 FILLER_21_305
*554 FILLER_21_317
*555 FILLER_21_329
*556 FILLER_21_335
*557 FILLER_21_337
*558 FILLER_21_39
*559 FILLER_21_51
*560 FILLER_21_55
*561 FILLER_21_57
*562 FILLER_21_69
*563 FILLER_21_81
*564 FILLER_21_93
*565 FILLER_22_109
*566 FILLER_22_121
*567 FILLER_22_133
*568 FILLER_22_139
*569 FILLER_22_141
*570 FILLER_22_15
*571 FILLER_22_153
*572 FILLER_22_165
*573 FILLER_22_177
*574 FILLER_22_189
*575 FILLER_22_195
*576 FILLER_22_197
*577 FILLER_22_209
*578 FILLER_22_221
*579 FILLER_22_233
*580 FILLER_22_245
*581 FILLER_22_251
*582 FILLER_22_253
*583 FILLER_22_265
*584 FILLER_22_27
*585 FILLER_22_277
*586 FILLER_22_289
*587 FILLER_22_29
*588 FILLER_22_3
*589 FILLER_22_301
*590 FILLER_22_307
*591 FILLER_22_309
*592 FILLER_22_321
*593 FILLER_22_333
*594 FILLER_22_337
*595 FILLER_22_41
*596 FILLER_22_53
*597 FILLER_22_65
*598 FILLER_22_77
*599 FILLER_22_83
*600 FILLER_22_85
*601 FILLER_22_97
*602 FILLER_23_105
*603 FILLER_23_111
*604 FILLER_23_113
*605 FILLER_23_125
*606 FILLER_23_137
*607 FILLER_23_149
*608 FILLER_23_15
*609 FILLER_23_161
*610 FILLER_23_167
*611 FILLER_23_169
*612 FILLER_23_181
*613 FILLER_23_193
*614 FILLER_23_205
*615 FILLER_23_217
*616 FILLER_23_223
*617 FILLER_23_225
*618 FILLER_23_237
*619 FILLER_23_249
*620 FILLER_23_261
*621 FILLER_23_27
*622 FILLER_23_273
*623 FILLER_23_279
*624 FILLER_23_281
*625 FILLER_23_293
*626 FILLER_23_3
*627 FILLER_23_305
*628 FILLER_23_317
*629 FILLER_23_329
*630 FILLER_23_335
*631 FILLER_23_337
*632 FILLER_23_39
*633 FILLER_23_51
*634 FILLER_23_55
*635 FILLER_23_57
*636 FILLER_23_69
*637 FILLER_23_81
*638 FILLER_23_93
*639 FILLER_24_109
*640 FILLER_24_121
*641 FILLER_24_133
*642 FILLER_24_139
*643 FILLER_24_141
*644 FILLER_24_15
*645 FILLER_24_153
*646 FILLER_24_165
*647 FILLER_24_177
*648 FILLER_24_189
*649 FILLER_24_195
*650 FILLER_24_197
*651 FILLER_24_209
*652 FILLER_24_221
*653 FILLER_24_233
*654 FILLER_24_245
*655 FILLER_24_251
*656 FILLER_24_253
*657 FILLER_24_265
*658 FILLER_24_27
*659 FILLER_24_277
*660 FILLER_24_289
*661 FILLER_24_29
*662 FILLER_24_3
*663 FILLER_24_301
*664 FILLER_24_307
*665 FILLER_24_309
*666 FILLER_24_321
*667 FILLER_24_333
*668 FILLER_24_337
*669 FILLER_24_41
*670 FILLER_24_53
*671 FILLER_24_65
*672 FILLER_24_77
*673 FILLER_24_83
*674 FILLER_24_85
*675 FILLER_24_97
*676 FILLER_25_105
*677 FILLER_25_111
*678 FILLER_25_113
*679 FILLER_25_125
*680 FILLER_25_137
*681 FILLER_25_149
*682 FILLER_25_15
*683 FILLER_25_161
*684 FILLER_25_167
*685 FILLER_25_169
*686 FILLER_25_181
*687 FILLER_25_193
*688 FILLER_25_205
*689 FILLER_25_217
*690 FILLER_25_223
*691 FILLER_25_225
*692 FILLER_25_237
*693 FILLER_25_249
*694 FILLER_25_261
*695 FILLER_25_27
*696 FILLER_25_273
*697 FILLER_25_279
*698 FILLER_25_281
*699 FILLER_25_293
*700 FILLER_25_3
*701 FILLER_25_305
*702 FILLER_25_317
*703 FILLER_25_329
*704 FILLER_25_335
*705 FILLER_25_337
*706 FILLER_25_39
*707 FILLER_25_51
*708 FILLER_25_55
*709 FILLER_25_57
*710 FILLER_25_69
*711 FILLER_25_81
*712 FILLER_25_93
*713 FILLER_26_109
*714 FILLER_26_121
*715 FILLER_26_133
*716 FILLER_26_139
*717 FILLER_26_141
*718 FILLER_26_15
*719 FILLER_26_153
*720 FILLER_26_165
*721 FILLER_26_177
*722 FILLER_26_189
*723 FILLER_26_195
*724 FILLER_26_197
*725 FILLER_26_209
*726 FILLER_26_221
*727 FILLER_26_233
*728 FILLER_26_245
*729 FILLER_26_251
*730 FILLER_26_253
*731 FILLER_26_265
*732 FILLER_26_27
*733 FILLER_26_277
*734 FILLER_26_289
*735 FILLER_26_29
*736 FILLER_26_3
*737 FILLER_26_301
*738 FILLER_26_307
*739 FILLER_26_309
*740 FILLER_26_321
*741 FILLER_26_333
*742 FILLER_26_337
*743 FILLER_26_41
*744 FILLER_26_53
*745 FILLER_26_65
*746 FILLER_26_77
*747 FILLER_26_83
*748 FILLER_26_85
*749 FILLER_26_97
*750 FILLER_27_105
*751 FILLER_27_111
*752 FILLER_27_113
*753 FILLER_27_125
*754 FILLER_27_137
*755 FILLER_27_149
*756 FILLER_27_15
*757 FILLER_27_161
*758 FILLER_27_167
*759 FILLER_27_169
*760 FILLER_27_181
*761 FILLER_27_193
*762 FILLER_27_205
*763 FILLER_27_217
*764 FILLER_27_223
*765 FILLER_27_225
*766 FILLER_27_237
*767 FILLER_27_249
*768 FILLER_27_261
*769 FILLER_27_27
*770 FILLER_27_273
*771 FILLER_27_279
*772 FILLER_27_281
*773 FILLER_27_293
*774 FILLER_27_3
*775 FILLER_27_305
*776 FILLER_27_317
*777 FILLER_27_329
*778 FILLER_27_335
*779 FILLER_27_337
*780 FILLER_27_39
*781 FILLER_27_51
*782 FILLER_27_55
*783 FILLER_27_57
*784 FILLER_27_69
*785 FILLER_27_81
*786 FILLER_27_93
*787 FILLER_28_109
*788 FILLER_28_121
*789 FILLER_28_133
*790 FILLER_28_139
*791 FILLER_28_141
*792 FILLER_28_15
*793 FILLER_28_153
*794 FILLER_28_165
*795 FILLER_28_177
*796 FILLER_28_189
*797 FILLER_28_195
*798 FILLER_28_197
*799 FILLER_28_209
*800 FILLER_28_221
*801 FILLER_28_233
*802 FILLER_28_245
*803 FILLER_28_251
*804 FILLER_28_253
*805 FILLER_28_265
*806 FILLER_28_27
*807 FILLER_28_277
*808 FILLER_28_289
*809 FILLER_28_29
*810 FILLER_28_3
*811 FILLER_28_301
*812 FILLER_28_307
*813 FILLER_28_309
*814 FILLER_28_321
*815 FILLER_28_333
*816 FILLER_28_337
*817 FILLER_28_41
*818 FILLER_28_53
*819 FILLER_28_65
*820 FILLER_28_77
*821 FILLER_28_83
*822 FILLER_28_85
*823 FILLER_28_97
*824 FILLER_29_105
*825 FILLER_29_111
*826 FILLER_29_113
*827 FILLER_29_125
*828 FILLER_29_137
*829 FILLER_29_149
*830 FILLER_29_15
*831 FILLER_29_161
*832 FILLER_29_167
*833 FILLER_29_169
*834 FILLER_29_181
*835 FILLER_29_193
*836 FILLER_29_205
*837 FILLER_29_217
*838 FILLER_29_223
*839 FILLER_29_225
*840 FILLER_29_237
*841 FILLER_29_249
*842 FILLER_29_261
*843 FILLER_29_27
*844 FILLER_29_273
*845 FILLER_29_279
*846 FILLER_29_281
*847 FILLER_29_293
*848 FILLER_29_3
*849 FILLER_29_305
*850 FILLER_29_317
*851 FILLER_29_329
*852 FILLER_29_335
*853 FILLER_29_337
*854 FILLER_29_39
*855 FILLER_29_51
*856 FILLER_29_55
*857 FILLER_29_57
*858 FILLER_29_69
*859 FILLER_29_81
*860 FILLER_29_93
*861 FILLER_2_109
*862 FILLER_2_121
*863 FILLER_2_133
*864 FILLER_2_139
*865 FILLER_2_141
*866 FILLER_2_15
*867 FILLER_2_153
*868 FILLER_2_165
*869 FILLER_2_177
*870 FILLER_2_189
*871 FILLER_2_195
*872 FILLER_2_197
*873 FILLER_2_209
*874 FILLER_2_221
*875 FILLER_2_233
*876 FILLER_2_245
*877 FILLER_2_251
*878 FILLER_2_253
*879 FILLER_2_265
*880 FILLER_2_27
*881 FILLER_2_277
*882 FILLER_2_289
*883 FILLER_2_29
*884 FILLER_2_3
*885 FILLER_2_301
*886 FILLER_2_307
*887 FILLER_2_309
*888 FILLER_2_321
*889 FILLER_2_333
*890 FILLER_2_337
*891 FILLER_2_41
*892 FILLER_2_53
*893 FILLER_2_65
*894 FILLER_2_77
*895 FILLER_2_83
*896 FILLER_2_85
*897 FILLER_2_97
*898 FILLER_30_109
*899 FILLER_30_121
*900 FILLER_30_133
*901 FILLER_30_139
*902 FILLER_30_141
*903 FILLER_30_15
*904 FILLER_30_153
*905 FILLER_30_165
*906 FILLER_30_177
*907 FILLER_30_189
*908 FILLER_30_195
*909 FILLER_30_197
*910 FILLER_30_209
*911 FILLER_30_221
*912 FILLER_30_233
*913 FILLER_30_245
*914 FILLER_30_251
*915 FILLER_30_253
*916 FILLER_30_265
*917 FILLER_30_27
*918 FILLER_30_277
*919 FILLER_30_289
*920 FILLER_30_29
*921 FILLER_30_3
*922 FILLER_30_301
*923 FILLER_30_307
*924 FILLER_30_309
*925 FILLER_30_321
*926 FILLER_30_333
*927 FILLER_30_337
*928 FILLER_30_41
*929 FILLER_30_53
*930 FILLER_30_65
*931 FILLER_30_77
*932 FILLER_30_83
*933 FILLER_30_85
*934 FILLER_30_97
*935 FILLER_31_105
*936 FILLER_31_111
*937 FILLER_31_113
*938 FILLER_31_125
*939 FILLER_31_137
*940 FILLER_31_149
*941 FILLER_31_15
*942 FILLER_31_161
*943 FILLER_31_167
*944 FILLER_31_169
*945 FILLER_31_181
*946 FILLER_31_193
*947 FILLER_31_205
*948 FILLER_31_217
*949 FILLER_31_223
*950 FILLER_31_225
*951 FILLER_31_237
*952 FILLER_31_249
*953 FILLER_31_261
*954 FILLER_31_27
*955 FILLER_31_273
*956 FILLER_31_279
*957 FILLER_31_281
*958 FILLER_31_293
*959 FILLER_31_3
*960 FILLER_31_305
*961 FILLER_31_317
*962 FILLER_31_329
*963 FILLER_31_335
*964 FILLER_31_337
*965 FILLER_31_39
*966 FILLER_31_51
*967 FILLER_31_55
*968 FILLER_31_57
*969 FILLER_31_69
*970 FILLER_31_81
*971 FILLER_31_93
*972 FILLER_32_109
*973 FILLER_32_121
*974 FILLER_32_133
*975 FILLER_32_139
*976 FILLER_32_141
*977 FILLER_32_15
*978 FILLER_32_153
*979 FILLER_32_165
*980 FILLER_32_177
*981 FILLER_32_189
*982 FILLER_32_195
*983 FILLER_32_197
*984 FILLER_32_209
*985 FILLER_32_221
*986 FILLER_32_233
*987 FILLER_32_245
*988 FILLER_32_251
*989 FILLER_32_253
*990 FILLER_32_265
*991 FILLER_32_27
*992 FILLER_32_277
*993 FILLER_32_289
*994 FILLER_32_29
*995 FILLER_32_3
*996 FILLER_32_301
*997 FILLER_32_307
*998 FILLER_32_309
*999 FILLER_32_321
*1000 FILLER_32_333
*1001 FILLER_32_337
*1002 FILLER_32_41
*1003 FILLER_32_53
*1004 FILLER_32_65
*1005 FILLER_32_77
*1006 FILLER_32_83
*1007 FILLER_32_85
*1008 FILLER_32_97
*1009 FILLER_33_105
*1010 FILLER_33_111
*1011 FILLER_33_113
*1012 FILLER_33_125
*1013 FILLER_33_137
*1014 FILLER_33_149
*1015 FILLER_33_15
*1016 FILLER_33_161
*1017 FILLER_33_167
*1018 FILLER_33_169
*1019 FILLER_33_181
*1020 FILLER_33_193
*1021 FILLER_33_205
*1022 FILLER_33_217
*1023 FILLER_33_223
*1024 FILLER_33_225
*1025 FILLER_33_237
*1026 FILLER_33_249
*1027 FILLER_33_261
*1028 FILLER_33_27
*1029 FILLER_33_273
*1030 FILLER_33_279
*1031 FILLER_33_281
*1032 FILLER_33_293
*1033 FILLER_33_3
*1034 FILLER_33_305
*1035 FILLER_33_317
*1036 FILLER_33_329
*1037 FILLER_33_335
*1038 FILLER_33_337
*1039 FILLER_33_39
*1040 FILLER_33_51
*1041 FILLER_33_55
*1042 FILLER_33_57
*1043 FILLER_33_69
*1044 FILLER_33_81
*1045 FILLER_33_93
*1046 FILLER_34_109
*1047 FILLER_34_121
*1048 FILLER_34_133
*1049 FILLER_34_139
*1050 FILLER_34_141
*1051 FILLER_34_149
*1052 FILLER_34_161
*1053 FILLER_34_169
*1054 FILLER_34_174
*1055 FILLER_34_186
*1056 FILLER_34_194
*1057 FILLER_34_197
*1058 FILLER_34_20
*1059 FILLER_34_209
*1060 FILLER_34_221
*1061 FILLER_34_233
*1062 FILLER_34_245
*1063 FILLER_34_251
*1064 FILLER_34_253
*1065 FILLER_34_257
*1066 FILLER_34_262
*1067 FILLER_34_274
*1068 FILLER_34_286
*1069 FILLER_34_29
*1070 FILLER_34_298
*1071 FILLER_34_3
*1072 FILLER_34_306
*1073 FILLER_34_309
*1074 FILLER_34_321
*1075 FILLER_34_333
*1076 FILLER_34_337
*1077 FILLER_34_41
*1078 FILLER_34_53
*1079 FILLER_34_64
*1080 FILLER_34_76
*1081 FILLER_34_8
*1082 FILLER_34_85
*1083 FILLER_34_97
*1084 FILLER_35_103
*1085 FILLER_35_110
*1086 FILLER_35_113
*1087 FILLER_35_12
*1088 FILLER_35_120
*1089 FILLER_35_124
*1090 FILLER_35_128
*1091 FILLER_35_141
*1092 FILLER_35_145
*1093 FILLER_35_150
*1094 FILLER_35_158
*1095 FILLER_35_166
*1096 FILLER_35_169
*1097 FILLER_35_177
*1098 FILLER_35_182
*1099 FILLER_35_19
*1100 FILLER_35_190
*1101 FILLER_35_197
*1102 FILLER_35_209
*1103 FILLER_35_221
*1104 FILLER_35_225
*1105 FILLER_35_237
*1106 FILLER_35_249
*1107 FILLER_35_253
*1108 FILLER_35_26
*1109 FILLER_35_261
*1110 FILLER_35_269
*1111 FILLER_35_277
*1112 FILLER_35_281
*1113 FILLER_35_29
*1114 FILLER_35_293
*1115 FILLER_35_3
*1116 FILLER_35_305
*1117 FILLER_35_309
*1118 FILLER_35_321
*1119 FILLER_35_333
*1120 FILLER_35_337
*1121 FILLER_35_40
*1122 FILLER_35_47
*1123 FILLER_35_54
*1124 FILLER_35_57
*1125 FILLER_35_68
*1126 FILLER_35_75
*1127 FILLER_35_82
*1128 FILLER_35_85
*1129 FILLER_35_96
*1130 FILLER_3_105
*1131 FILLER_3_111
*1132 FILLER_3_113
*1133 FILLER_3_125
*1134 FILLER_3_137
*1135 FILLER_3_149
*1136 FILLER_3_15
*1137 FILLER_3_161
*1138 FILLER_3_167
*1139 FILLER_3_169
*1140 FILLER_3_181
*1141 FILLER_3_193
*1142 FILLER_3_205
*1143 FILLER_3_217
*1144 FILLER_3_223
*1145 FILLER_3_225
*1146 FILLER_3_237
*1147 FILLER_3_249
*1148 FILLER_3_261
*1149 FILLER_3_27
*1150 FILLER_3_273
*1151 FILLER_3_279
*1152 FILLER_3_281
*1153 FILLER_3_293
*1154 FILLER_3_3
*1155 FILLER_3_305
*1156 FILLER_3_317
*1157 FILLER_3_329
*1158 FILLER_3_335
*1159 FILLER_3_337
*1160 FILLER_3_39
*1161 FILLER_3_51
*1162 FILLER_3_55
*1163 FILLER_3_57
*1164 FILLER_3_69
*1165 FILLER_3_81
*1166 FILLER_3_93
*1167 FILLER_4_109
*1168 FILLER_4_121
*1169 FILLER_4_133
*1170 FILLER_4_139
*1171 FILLER_4_141
*1172 FILLER_4_15
*1173 FILLER_4_153
*1174 FILLER_4_165
*1175 FILLER_4_177
*1176 FILLER_4_189
*1177 FILLER_4_195
*1178 FILLER_4_197
*1179 FILLER_4_209
*1180 FILLER_4_221
*1181 FILLER_4_233
*1182 FILLER_4_245
*1183 FILLER_4_251
*1184 FILLER_4_253
*1185 FILLER_4_265
*1186 FILLER_4_27
*1187 FILLER_4_277
*1188 FILLER_4_289
*1189 FILLER_4_29
*1190 FILLER_4_3
*1191 FILLER_4_301
*1192 FILLER_4_307
*1193 FILLER_4_309
*1194 FILLER_4_321
*1195 FILLER_4_333
*1196 FILLER_4_337
*1197 FILLER_4_41
*1198 FILLER_4_53
*1199 FILLER_4_65
*1200 FILLER_4_77
*1201 FILLER_4_83
*1202 FILLER_4_85
*1203 FILLER_4_97
*1204 FILLER_5_105
*1205 FILLER_5_111
*1206 FILLER_5_113
*1207 FILLER_5_125
*1208 FILLER_5_137
*1209 FILLER_5_149
*1210 FILLER_5_15
*1211 FILLER_5_161
*1212 FILLER_5_167
*1213 FILLER_5_169
*1214 FILLER_5_181
*1215 FILLER_5_193
*1216 FILLER_5_205
*1217 FILLER_5_217
*1218 FILLER_5_223
*1219 FILLER_5_225
*1220 FILLER_5_237
*1221 FILLER_5_249
*1222 FILLER_5_261
*1223 FILLER_5_27
*1224 FILLER_5_273
*1225 FILLER_5_279
*1226 FILLER_5_281
*1227 FILLER_5_293
*1228 FILLER_5_3
*1229 FILLER_5_305
*1230 FILLER_5_317
*1231 FILLER_5_329
*1232 FILLER_5_335
*1233 FILLER_5_337
*1234 FILLER_5_39
*1235 FILLER_5_51
*1236 FILLER_5_55
*1237 FILLER_5_57
*1238 FILLER_5_69
*1239 FILLER_5_81
*1240 FILLER_5_93
*1241 FILLER_6_109
*1242 FILLER_6_121
*1243 FILLER_6_133
*1244 FILLER_6_139
*1245 FILLER_6_141
*1246 FILLER_6_15
*1247 FILLER_6_153
*1248 FILLER_6_165
*1249 FILLER_6_177
*1250 FILLER_6_189
*1251 FILLER_6_195
*1252 FILLER_6_197
*1253 FILLER_6_209
*1254 FILLER_6_221
*1255 FILLER_6_233
*1256 FILLER_6_245
*1257 FILLER_6_251
*1258 FILLER_6_253
*1259 FILLER_6_265
*1260 FILLER_6_27
*1261 FILLER_6_277
*1262 FILLER_6_289
*1263 FILLER_6_29
*1264 FILLER_6_3
*1265 FILLER_6_301
*1266 FILLER_6_307
*1267 FILLER_6_309
*1268 FILLER_6_321
*1269 FILLER_6_333
*1270 FILLER_6_337
*1271 FILLER_6_41
*1272 FILLER_6_53
*1273 FILLER_6_65
*1274 FILLER_6_77
*1275 FILLER_6_83
*1276 FILLER_6_85
*1277 FILLER_6_97
*1278 FILLER_7_105
*1279 FILLER_7_111
*1280 FILLER_7_113
*1281 FILLER_7_125
*1282 FILLER_7_137
*1283 FILLER_7_149
*1284 FILLER_7_15
*1285 FILLER_7_161
*1286 FILLER_7_167
*1287 FILLER_7_169
*1288 FILLER_7_181
*1289 FILLER_7_193
*1290 FILLER_7_205
*1291 FILLER_7_217
*1292 FILLER_7_223
*1293 FILLER_7_225
*1294 FILLER_7_237
*1295 FILLER_7_249
*1296 FILLER_7_261
*1297 FILLER_7_27
*1298 FILLER_7_273
*1299 FILLER_7_279
*1300 FILLER_7_281
*1301 FILLER_7_293
*1302 FILLER_7_3
*1303 FILLER_7_305
*1304 FILLER_7_317
*1305 FILLER_7_329
*1306 FILLER_7_335
*1307 FILLER_7_337
*1308 FILLER_7_39
*1309 FILLER_7_51
*1310 FILLER_7_55
*1311 FILLER_7_57
*1312 FILLER_7_69
*1313 FILLER_7_81
*1314 FILLER_7_93
*1315 FILLER_8_109
*1316 FILLER_8_121
*1317 FILLER_8_133
*1318 FILLER_8_139
*1319 FILLER_8_141
*1320 FILLER_8_15
*1321 FILLER_8_153
*1322 FILLER_8_165
*1323 FILLER_8_177
*1324 FILLER_8_189
*1325 FILLER_8_195
*1326 FILLER_8_197
*1327 FILLER_8_209
*1328 FILLER_8_221
*1329 FILLER_8_233
*1330 FILLER_8_245
*1331 FILLER_8_251
*1332 FILLER_8_253
*1333 FILLER_8_265
*1334 FILLER_8_27
*1335 FILLER_8_277
*1336 FILLER_8_289
*1337 FILLER_8_29
*1338 FILLER_8_3
*1339 FILLER_8_301
*1340 FILLER_8_307
*1341 FILLER_8_309
*1342 FILLER_8_321
*1343 FILLER_8_333
*1344 FILLER_8_337
*1345 FILLER_8_41
*1346 FILLER_8_53
*1347 FILLER_8_65
*1348 FILLER_8_77
*1349 FILLER_8_83
*1350 FILLER_8_85
*1351 FILLER_8_97
*1352 FILLER_9_105
*1353 FILLER_9_111
*1354 FILLER_9_113
*1355 FILLER_9_125
*1356 FILLER_9_137
*1357 FILLER_9_149
*1358 FILLER_9_15
*1359 FILLER_9_161
*1360 FILLER_9_167
*1361 FILLER_9_169
*1362 FILLER_9_181
*1363 FILLER_9_193
*1364 FILLER_9_205
*1365 FILLER_9_217
*1366 FILLER_9_223
*1367 FILLER_9_225
*1368 FILLER_9_237
*1369 FILLER_9_249
*1370 FILLER_9_261
*1371 FILLER_9_27
*1372 FILLER_9_273
*1373 FILLER_9_279
*1374 FILLER_9_281
*1375 FILLER_9_293
*1376 FILLER_9_3
*1377 FILLER_9_305
*1378 FILLER_9_317
*1379 FILLER_9_329
*1380 FILLER_9_335
*1381 FILLER_9_337
*1382 FILLER_9_39
*1383 FILLER_9_51
*1384 FILLER_9_55
*1385 FILLER_9_57
*1386 FILLER_9_69
*1387 FILLER_9_81
*1388 FILLER_9_93
*1389 PHY_0
*1390 PHY_1
*1391 PHY_10
*1392 PHY_11
*1393 PHY_12
*1394 PHY_13
*1395 PHY_14
*1396 PHY_15
*1397 PHY_16
*1398 PHY_17
*1399 PHY_18
*1400 PHY_19
*1401 PHY_2
*1402 PHY_20
*1403 PHY_21
*1404 PHY_22
*1405 PHY_23
*1406 PHY_24
*1407 PHY_25
*1408 PHY_26
*1409 PHY_27
*1410 PHY_28
*1411 PHY_29
*1412 PHY_3
*1413 PHY_30
*1414 PHY_31
*1415 PHY_32
*1416 PHY_33
*1417 PHY_34
*1418 PHY_35
*1419 PHY_36
*1420 PHY_37
*1421 PHY_38
*1422 PHY_39
*1423 PHY_4
*1424 PHY_40
*1425 PHY_41
*1426 PHY_42
*1427 PHY_43
*1428 PHY_44
*1429 PHY_45
*1430 PHY_46
*1431 PHY_47
*1432 PHY_48
*1433 PHY_49
*1434 PHY_5
*1435 PHY_50
*1436 PHY_51
*1437 PHY_52
*1438 PHY_53
*1439 PHY_54
*1440 PHY_55
*1441 PHY_56
*1442 PHY_57
*1443 PHY_58
*1444 PHY_59
*1445 PHY_6
*1446 PHY_60
*1447 PHY_61
*1448 PHY_62
*1449 PHY_63
*1450 PHY_64
*1451 PHY_65
*1452 PHY_66
*1453 PHY_67
*1454 PHY_68
*1455 PHY_69
*1456 PHY_7
*1457 PHY_70
*1458 PHY_71
*1459 PHY_8
*1460 PHY_9
*1461 TAP_100
*1462 TAP_101
*1463 TAP_102
*1464 TAP_103
*1465 TAP_104
*1466 TAP_105
*1467 TAP_106
*1468 TAP_107
*1469 TAP_108
*1470 TAP_109
*1471 TAP_110
*1472 TAP_111
*1473 TAP_112
*1474 TAP_113
*1475 TAP_114
*1476 TAP_115
*1477 TAP_116
*1478 TAP_117
*1479 TAP_118
*1480 TAP_119
*1481 TAP_120
*1482 TAP_121
*1483 TAP_122
*1484 TAP_123
*1485 TAP_124
*1486 TAP_125
*1487 TAP_126
*1488 TAP_127
*1489 TAP_128
*1490 TAP_129
*1491 TAP_130
*1492 TAP_131
*1493 TAP_132
*1494 TAP_133
*1495 TAP_134
*1496 TAP_135
*1497 TAP_136
*1498 TAP_137
*1499 TAP_138
*1500 TAP_139
*1501 TAP_140
*1502 TAP_141
*1503 TAP_142
*1504 TAP_143
*1505 TAP_144
*1506 TAP_145
*1507 TAP_146
*1508 TAP_147
*1509 TAP_148
*1510 TAP_149
*1511 TAP_150
*1512 TAP_151
*1513 TAP_152
*1514 TAP_153
*1515 TAP_154
*1516 TAP_155
*1517 TAP_156
*1518 TAP_157
*1519 TAP_158
*1520 TAP_159
*1521 TAP_160
*1522 TAP_161
*1523 TAP_162
*1524 TAP_163
*1525 TAP_164
*1526 TAP_165
*1527 TAP_166
*1528 TAP_167
*1529 TAP_168
*1530 TAP_169
*1531 TAP_170
*1532 TAP_171
*1533 TAP_172
*1534 TAP_173
*1535 TAP_174
*1536 TAP_175
*1537 TAP_176
*1538 TAP_177
*1539 TAP_178
*1540 TAP_179
*1541 TAP_180
*1542 TAP_181
*1543 TAP_182
*1544 TAP_183
*1545 TAP_184
*1546 TAP_185
*1547 TAP_186
*1548 TAP_187
*1549 TAP_188
*1550 TAP_189
*1551 TAP_190
*1552 TAP_191
*1553 TAP_192
*1554 TAP_193
*1555 TAP_194
*1556 TAP_195
*1557 TAP_196
*1558 TAP_197
*1559 TAP_198
*1560 TAP_199
*1561 TAP_200
*1562 TAP_201
*1563 TAP_202
*1564 TAP_203
*1565 TAP_204
*1566 TAP_205
*1567 TAP_206
*1568 TAP_207
*1569 TAP_208
*1570 TAP_209
*1571 TAP_210
*1572 TAP_211
*1573 TAP_212
*1574 TAP_213
*1575 TAP_214
*1576 TAP_215
*1577 TAP_216
*1578 TAP_217
*1579 TAP_218
*1580 TAP_219
*1581 TAP_220
*1582 TAP_221
*1583 TAP_222
*1584 TAP_223
*1585 TAP_224
*1586 TAP_225
*1587 TAP_226
*1588 TAP_227
*1589 TAP_228
*1590 TAP_229
*1591 TAP_230
*1592 TAP_231
*1593 TAP_232
*1594 TAP_233
*1595 TAP_234
*1596 TAP_235
*1597 TAP_236
*1598 TAP_237
*1599 TAP_238
*1600 TAP_239
*1601 TAP_240
*1602 TAP_241
*1603 TAP_242
*1604 TAP_243
*1605 TAP_244
*1606 TAP_245
*1607 TAP_246
*1608 TAP_247
*1609 TAP_248
*1610 TAP_249
*1611 TAP_250
*1612 TAP_251
*1613 TAP_252
*1614 TAP_253
*1615 TAP_254
*1616 TAP_255
*1617 TAP_256
*1618 TAP_257
*1619 TAP_258
*1620 TAP_259
*1621 TAP_260
*1622 TAP_261
*1623 TAP_262
*1624 TAP_263
*1625 TAP_264
*1626 TAP_265
*1627 TAP_266
*1628 TAP_267
*1629 TAP_268
*1630 TAP_269
*1631 TAP_270
*1632 TAP_271
*1633 TAP_272
*1634 TAP_273
*1635 TAP_274
*1636 TAP_275
*1637 TAP_276
*1638 TAP_277
*1639 TAP_278
*1640 TAP_279
*1641 TAP_280
*1642 TAP_281
*1643 TAP_282
*1644 TAP_283
*1645 TAP_284
*1646 TAP_285
*1647 TAP_286
*1648 TAP_287
*1649 TAP_288
*1650 TAP_289
*1651 TAP_290
*1652 TAP_291
*1653 TAP_292
*1654 TAP_293
*1655 TAP_294
*1656 TAP_295
*1657 TAP_296
*1658 TAP_297
*1659 TAP_298
*1660 TAP_299
*1661 TAP_72
*1662 TAP_73
*1663 TAP_74
*1664 TAP_75
*1665 TAP_76
*1666 TAP_77
*1667 TAP_78
*1668 TAP_79
*1669 TAP_80
*1670 TAP_81
*1671 TAP_82
*1672 TAP_83
*1673 TAP_84
*1674 TAP_85
*1675 TAP_86
*1676 TAP_87
*1677 TAP_88
*1678 TAP_89
*1679 TAP_90
*1680 TAP_91
*1681 TAP_92
*1682 TAP_93
*1683 TAP_94
*1684 TAP_95
*1685 TAP_96
*1686 TAP_97
*1687 TAP_98
*1688 TAP_99
*1689 _01_
*1690 _02_
*1691 _19_
*1692 _20_
*1693 _21_