*SPEF "ieee 1481-1999"
*DESIGN "tt_um_wokwi_366318576852367361"
*DATE "11:11:11 Fri 11 11, 1111"
*VENDOR "OpenRCX"
*PROGRAM "Parallel Extraction"
*VERSION "1.0"
*DESIGN_FLOW "NAME_SCOPE LOCAL" "PIN_CAP NONE"
*DIVIDER /
*DELIMITER :
*BUS_DELIMITER []
*T_UNIT 1 NS
*C_UNIT 1 PF
*R_UNIT 1 OHM
*L_UNIT 1 HENRY

*NAME_MAP
*1 clk
*2 ena
*3 rst_n
*4 ui_in[0]
*5 ui_in[1]
*6 ui_in[2]
*7 ui_in[3]
*8 ui_in[4]
*9 ui_in[5]
*10 ui_in[6]
*11 ui_in[7]
*12 uio_in[0]
*13 uio_in[1]
*14 uio_in[2]
*15 uio_in[3]
*16 uio_in[4]
*17 uio_in[5]
*18 uio_in[6]
*19 uio_in[7]
*20 net17
*21 net18
*22 net19
*23 net20
*24 net21
*25 net22
*26 net29
*27 uio_oe[7]
*28 net23
*29 net24
*30 net25
*31 net26
*32 net27
*33 net28
*34 uio_out[6]
*35 uio_out[7]
*36 uo_out[0]
*37 uo_out[1]
*38 uo_out[2]
*39 uo_out[3]
*40 uo_out[4]
*41 uo_out[5]
*42 uo_out[6]
*43 uo_out[7]
*46 _00_
*47 _01_
*48 _02_
*49 _03_
*50 _04_
*51 _05_
*52 _06_
*53 _07_
*54 _08_
*55 _09_
*56 _10_
*57 _11_
*58 _12_
*59 _13_
*60 _14_
*61 _15_
*62 _16_
*63 _17_
*64 gate10\.out
*65 gate15\.b
*66 gate21\.b
*67 gate27\.b
*68 gate3\.b
*69 gate33\.b
*70 gate39\.b
*71 gate45\.b
*72 gate51\.b
*73 gate56\.out
*74 gate58\.out
*75 gate60\.out
*76 gate71\.out
*77 gate73\.out
*78 gate75\.out
*79 gate77\.out
*80 net1
*81 net10
*82 net11
*83 net12
*84 net13
*85 net14
*86 net15
*87 net16
*88 net2
*89 net3
*90 net4
*91 net5
*92 net6
*93 net7
*94 net8
*95 net9
*96 or1\.out
*97 or3\.out
*98 FILLER_0_109
*99 FILLER_0_113
*100 FILLER_0_125
*101 FILLER_0_137
*102 FILLER_0_141
*103 FILLER_0_15
*104 FILLER_0_153
*105 FILLER_0_165
*106 FILLER_0_169
*107 FILLER_0_181
*108 FILLER_0_193
*109 FILLER_0_197
*110 FILLER_0_209
*111 FILLER_0_221
*112 FILLER_0_225
*113 FILLER_0_237
*114 FILLER_0_249
*115 FILLER_0_253
*116 FILLER_0_265
*117 FILLER_0_27
*118 FILLER_0_277
*119 FILLER_0_281
*120 FILLER_0_29
*121 FILLER_0_293
*122 FILLER_0_3
*123 FILLER_0_305
*124 FILLER_0_309
*125 FILLER_0_321
*126 FILLER_0_333
*127 FILLER_0_337
*128 FILLER_0_41
*129 FILLER_0_53
*130 FILLER_0_57
*131 FILLER_0_69
*132 FILLER_0_81
*133 FILLER_0_85
*134 FILLER_0_97
*135 FILLER_10_109
*136 FILLER_10_121
*137 FILLER_10_133
*138 FILLER_10_139
*139 FILLER_10_141
*140 FILLER_10_15
*141 FILLER_10_153
*142 FILLER_10_165
*143 FILLER_10_177
*144 FILLER_10_189
*145 FILLER_10_195
*146 FILLER_10_197
*147 FILLER_10_209
*148 FILLER_10_221
*149 FILLER_10_233
*150 FILLER_10_245
*151 FILLER_10_251
*152 FILLER_10_253
*153 FILLER_10_265
*154 FILLER_10_27
*155 FILLER_10_277
*156 FILLER_10_289
*157 FILLER_10_29
*158 FILLER_10_3
*159 FILLER_10_301
*160 FILLER_10_307
*161 FILLER_10_309
*162 FILLER_10_321
*163 FILLER_10_333
*164 FILLER_10_337
*165 FILLER_10_41
*166 FILLER_10_53
*167 FILLER_10_65
*168 FILLER_10_77
*169 FILLER_10_83
*170 FILLER_10_85
*171 FILLER_10_97
*172 FILLER_11_105
*173 FILLER_11_111
*174 FILLER_11_113
*175 FILLER_11_125
*176 FILLER_11_137
*177 FILLER_11_149
*178 FILLER_11_15
*179 FILLER_11_161
*180 FILLER_11_167
*181 FILLER_11_169
*182 FILLER_11_181
*183 FILLER_11_193
*184 FILLER_11_205
*185 FILLER_11_217
*186 FILLER_11_223
*187 FILLER_11_225
*188 FILLER_11_237
*189 FILLER_11_249
*190 FILLER_11_261
*191 FILLER_11_27
*192 FILLER_11_273
*193 FILLER_11_279
*194 FILLER_11_281
*195 FILLER_11_293
*196 FILLER_11_3
*197 FILLER_11_305
*198 FILLER_11_317
*199 FILLER_11_329
*200 FILLER_11_335
*201 FILLER_11_337
*202 FILLER_11_39
*203 FILLER_11_51
*204 FILLER_11_55
*205 FILLER_11_57
*206 FILLER_11_69
*207 FILLER_11_81
*208 FILLER_11_93
*209 FILLER_12_109
*210 FILLER_12_121
*211 FILLER_12_133
*212 FILLER_12_139
*213 FILLER_12_141
*214 FILLER_12_15
*215 FILLER_12_153
*216 FILLER_12_165
*217 FILLER_12_177
*218 FILLER_12_189
*219 FILLER_12_195
*220 FILLER_12_197
*221 FILLER_12_209
*222 FILLER_12_221
*223 FILLER_12_233
*224 FILLER_12_245
*225 FILLER_12_251
*226 FILLER_12_253
*227 FILLER_12_265
*228 FILLER_12_27
*229 FILLER_12_277
*230 FILLER_12_289
*231 FILLER_12_29
*232 FILLER_12_3
*233 FILLER_12_301
*234 FILLER_12_307
*235 FILLER_12_309
*236 FILLER_12_321
*237 FILLER_12_333
*238 FILLER_12_337
*239 FILLER_12_41
*240 FILLER_12_53
*241 FILLER_12_65
*242 FILLER_12_77
*243 FILLER_12_83
*244 FILLER_12_85
*245 FILLER_12_97
*246 FILLER_13_105
*247 FILLER_13_111
*248 FILLER_13_113
*249 FILLER_13_125
*250 FILLER_13_137
*251 FILLER_13_149
*252 FILLER_13_15
*253 FILLER_13_161
*254 FILLER_13_167
*255 FILLER_13_169
*256 FILLER_13_181
*257 FILLER_13_193
*258 FILLER_13_205
*259 FILLER_13_217
*260 FILLER_13_223
*261 FILLER_13_225
*262 FILLER_13_237
*263 FILLER_13_249
*264 FILLER_13_261
*265 FILLER_13_27
*266 FILLER_13_273
*267 FILLER_13_279
*268 FILLER_13_281
*269 FILLER_13_293
*270 FILLER_13_3
*271 FILLER_13_305
*272 FILLER_13_317
*273 FILLER_13_329
*274 FILLER_13_335
*275 FILLER_13_337
*276 FILLER_13_39
*277 FILLER_13_51
*278 FILLER_13_55
*279 FILLER_13_57
*280 FILLER_13_69
*281 FILLER_13_81
*282 FILLER_13_93
*283 FILLER_14_109
*284 FILLER_14_121
*285 FILLER_14_133
*286 FILLER_14_139
*287 FILLER_14_141
*288 FILLER_14_15
*289 FILLER_14_153
*290 FILLER_14_165
*291 FILLER_14_177
*292 FILLER_14_189
*293 FILLER_14_195
*294 FILLER_14_197
*295 FILLER_14_209
*296 FILLER_14_221
*297 FILLER_14_233
*298 FILLER_14_245
*299 FILLER_14_251
*300 FILLER_14_253
*301 FILLER_14_265
*302 FILLER_14_27
*303 FILLER_14_277
*304 FILLER_14_289
*305 FILLER_14_29
*306 FILLER_14_3
*307 FILLER_14_301
*308 FILLER_14_307
*309 FILLER_14_309
*310 FILLER_14_321
*311 FILLER_14_333
*312 FILLER_14_337
*313 FILLER_14_41
*314 FILLER_14_53
*315 FILLER_14_65
*316 FILLER_14_77
*317 FILLER_14_83
*318 FILLER_14_85
*319 FILLER_14_97
*320 FILLER_15_105
*321 FILLER_15_111
*322 FILLER_15_113
*323 FILLER_15_125
*324 FILLER_15_137
*325 FILLER_15_149
*326 FILLER_15_15
*327 FILLER_15_161
*328 FILLER_15_167
*329 FILLER_15_169
*330 FILLER_15_181
*331 FILLER_15_193
*332 FILLER_15_205
*333 FILLER_15_217
*334 FILLER_15_223
*335 FILLER_15_225
*336 FILLER_15_237
*337 FILLER_15_249
*338 FILLER_15_261
*339 FILLER_15_27
*340 FILLER_15_273
*341 FILLER_15_279
*342 FILLER_15_281
*343 FILLER_15_293
*344 FILLER_15_3
*345 FILLER_15_305
*346 FILLER_15_317
*347 FILLER_15_329
*348 FILLER_15_335
*349 FILLER_15_337
*350 FILLER_15_39
*351 FILLER_15_51
*352 FILLER_15_55
*353 FILLER_15_57
*354 FILLER_15_69
*355 FILLER_15_81
*356 FILLER_15_93
*357 FILLER_16_109
*358 FILLER_16_121
*359 FILLER_16_133
*360 FILLER_16_139
*361 FILLER_16_141
*362 FILLER_16_15
*363 FILLER_16_153
*364 FILLER_16_165
*365 FILLER_16_177
*366 FILLER_16_189
*367 FILLER_16_195
*368 FILLER_16_197
*369 FILLER_16_209
*370 FILLER_16_221
*371 FILLER_16_233
*372 FILLER_16_245
*373 FILLER_16_251
*374 FILLER_16_253
*375 FILLER_16_265
*376 FILLER_16_27
*377 FILLER_16_277
*378 FILLER_16_289
*379 FILLER_16_29
*380 FILLER_16_3
*381 FILLER_16_301
*382 FILLER_16_307
*383 FILLER_16_309
*384 FILLER_16_321
*385 FILLER_16_333
*386 FILLER_16_337
*387 FILLER_16_41
*388 FILLER_16_53
*389 FILLER_16_65
*390 FILLER_16_77
*391 FILLER_16_83
*392 FILLER_16_85
*393 FILLER_16_97
*394 FILLER_17_105
*395 FILLER_17_111
*396 FILLER_17_113
*397 FILLER_17_125
*398 FILLER_17_137
*399 FILLER_17_149
*400 FILLER_17_15
*401 FILLER_17_161
*402 FILLER_17_167
*403 FILLER_17_169
*404 FILLER_17_181
*405 FILLER_17_193
*406 FILLER_17_205
*407 FILLER_17_217
*408 FILLER_17_223
*409 FILLER_17_225
*410 FILLER_17_237
*411 FILLER_17_249
*412 FILLER_17_261
*413 FILLER_17_27
*414 FILLER_17_273
*415 FILLER_17_279
*416 FILLER_17_281
*417 FILLER_17_293
*418 FILLER_17_3
*419 FILLER_17_305
*420 FILLER_17_317
*421 FILLER_17_329
*422 FILLER_17_335
*423 FILLER_17_337
*424 FILLER_17_39
*425 FILLER_17_51
*426 FILLER_17_55
*427 FILLER_17_57
*428 FILLER_17_69
*429 FILLER_17_81
*430 FILLER_17_93
*431 FILLER_18_109
*432 FILLER_18_121
*433 FILLER_18_133
*434 FILLER_18_139
*435 FILLER_18_141
*436 FILLER_18_15
*437 FILLER_18_153
*438 FILLER_18_165
*439 FILLER_18_177
*440 FILLER_18_189
*441 FILLER_18_195
*442 FILLER_18_197
*443 FILLER_18_209
*444 FILLER_18_221
*445 FILLER_18_233
*446 FILLER_18_245
*447 FILLER_18_251
*448 FILLER_18_253
*449 FILLER_18_265
*450 FILLER_18_27
*451 FILLER_18_277
*452 FILLER_18_289
*453 FILLER_18_29
*454 FILLER_18_3
*455 FILLER_18_301
*456 FILLER_18_307
*457 FILLER_18_309
*458 FILLER_18_321
*459 FILLER_18_333
*460 FILLER_18_337
*461 FILLER_18_41
*462 FILLER_18_53
*463 FILLER_18_65
*464 FILLER_18_77
*465 FILLER_18_83
*466 FILLER_18_85
*467 FILLER_18_97
*468 FILLER_19_105
*469 FILLER_19_111
*470 FILLER_19_113
*471 FILLER_19_125
*472 FILLER_19_137
*473 FILLER_19_149
*474 FILLER_19_15
*475 FILLER_19_161
*476 FILLER_19_167
*477 FILLER_19_169
*478 FILLER_19_181
*479 FILLER_19_193
*480 FILLER_19_205
*481 FILLER_19_217
*482 FILLER_19_223
*483 FILLER_19_225
*484 FILLER_19_237
*485 FILLER_19_249
*486 FILLER_19_261
*487 FILLER_19_27
*488 FILLER_19_273
*489 FILLER_19_279
*490 FILLER_19_281
*491 FILLER_19_293
*492 FILLER_19_3
*493 FILLER_19_305
*494 FILLER_19_317
*495 FILLER_19_329
*496 FILLER_19_335
*497 FILLER_19_337
*498 FILLER_19_39
*499 FILLER_19_51
*500 FILLER_19_55
*501 FILLER_19_57
*502 FILLER_19_69
*503 FILLER_19_81
*504 FILLER_19_93
*505 FILLER_1_105
*506 FILLER_1_111
*507 FILLER_1_113
*508 FILLER_1_125
*509 FILLER_1_137
*510 FILLER_1_149
*511 FILLER_1_15
*512 FILLER_1_161
*513 FILLER_1_167
*514 FILLER_1_169
*515 FILLER_1_181
*516 FILLER_1_193
*517 FILLER_1_205
*518 FILLER_1_217
*519 FILLER_1_223
*520 FILLER_1_225
*521 FILLER_1_237
*522 FILLER_1_249
*523 FILLER_1_261
*524 FILLER_1_27
*525 FILLER_1_273
*526 FILLER_1_279
*527 FILLER_1_281
*528 FILLER_1_293
*529 FILLER_1_3
*530 FILLER_1_305
*531 FILLER_1_317
*532 FILLER_1_329
*533 FILLER_1_335
*534 FILLER_1_337
*535 FILLER_1_39
*536 FILLER_1_51
*537 FILLER_1_55
*538 FILLER_1_57
*539 FILLER_1_69
*540 FILLER_1_81
*541 FILLER_1_93
*542 FILLER_20_109
*543 FILLER_20_121
*544 FILLER_20_133
*545 FILLER_20_139
*546 FILLER_20_141
*547 FILLER_20_15
*548 FILLER_20_153
*549 FILLER_20_165
*550 FILLER_20_177
*551 FILLER_20_189
*552 FILLER_20_195
*553 FILLER_20_197
*554 FILLER_20_204
*555 FILLER_20_216
*556 FILLER_20_234
*557 FILLER_20_246
*558 FILLER_20_253
*559 FILLER_20_265
*560 FILLER_20_27
*561 FILLER_20_277
*562 FILLER_20_289
*563 FILLER_20_29
*564 FILLER_20_3
*565 FILLER_20_301
*566 FILLER_20_307
*567 FILLER_20_309
*568 FILLER_20_321
*569 FILLER_20_333
*570 FILLER_20_337
*571 FILLER_20_41
*572 FILLER_20_53
*573 FILLER_20_65
*574 FILLER_20_77
*575 FILLER_20_83
*576 FILLER_20_85
*577 FILLER_20_97
*578 FILLER_21_105
*579 FILLER_21_111
*580 FILLER_21_113
*581 FILLER_21_125
*582 FILLER_21_137
*583 FILLER_21_149
*584 FILLER_21_15
*585 FILLER_21_161
*586 FILLER_21_167
*587 FILLER_21_169
*588 FILLER_21_181
*589 FILLER_21_190
*590 FILLER_21_199
*591 FILLER_21_208
*592 FILLER_21_220
*593 FILLER_21_225
*594 FILLER_21_235
*595 FILLER_21_247
*596 FILLER_21_257
*597 FILLER_21_265
*598 FILLER_21_27
*599 FILLER_21_274
*600 FILLER_21_281
*601 FILLER_21_289
*602 FILLER_21_296
*603 FILLER_21_3
*604 FILLER_21_304
*605 FILLER_21_312
*606 FILLER_21_324
*607 FILLER_21_337
*608 FILLER_21_39
*609 FILLER_21_51
*610 FILLER_21_55
*611 FILLER_21_57
*612 FILLER_21_69
*613 FILLER_21_81
*614 FILLER_21_93
*615 FILLER_22_109
*616 FILLER_22_121
*617 FILLER_22_133
*618 FILLER_22_139
*619 FILLER_22_141
*620 FILLER_22_15
*621 FILLER_22_153
*622 FILLER_22_165
*623 FILLER_22_177
*624 FILLER_22_181
*625 FILLER_22_188
*626 FILLER_22_197
*627 FILLER_22_205
*628 FILLER_22_221
*629 FILLER_22_229
*630 FILLER_22_237
*631 FILLER_22_249
*632 FILLER_22_253
*633 FILLER_22_265
*634 FILLER_22_269
*635 FILLER_22_27
*636 FILLER_22_278
*637 FILLER_22_282
*638 FILLER_22_29
*639 FILLER_22_291
*640 FILLER_22_295
*641 FILLER_22_3
*642 FILLER_22_304
*643 FILLER_22_309
*644 FILLER_22_317
*645 FILLER_22_328
*646 FILLER_22_336
*647 FILLER_22_41
*648 FILLER_22_53
*649 FILLER_22_65
*650 FILLER_22_77
*651 FILLER_22_83
*652 FILLER_22_85
*653 FILLER_22_97
*654 FILLER_23_105
*655 FILLER_23_111
*656 FILLER_23_113
*657 FILLER_23_125
*658 FILLER_23_137
*659 FILLER_23_149
*660 FILLER_23_15
*661 FILLER_23_161
*662 FILLER_23_167
*663 FILLER_23_169
*664 FILLER_23_181
*665 FILLER_23_193
*666 FILLER_23_205
*667 FILLER_23_217
*668 FILLER_23_223
*669 FILLER_23_225
*670 FILLER_23_237
*671 FILLER_23_249
*672 FILLER_23_261
*673 FILLER_23_27
*674 FILLER_23_273
*675 FILLER_23_279
*676 FILLER_23_281
*677 FILLER_23_293
*678 FILLER_23_3
*679 FILLER_23_305
*680 FILLER_23_321
*681 FILLER_23_333
*682 FILLER_23_337
*683 FILLER_23_39
*684 FILLER_23_51
*685 FILLER_23_55
*686 FILLER_23_57
*687 FILLER_23_69
*688 FILLER_23_81
*689 FILLER_23_93
*690 FILLER_24_109
*691 FILLER_24_121
*692 FILLER_24_133
*693 FILLER_24_139
*694 FILLER_24_141
*695 FILLER_24_146
*696 FILLER_24_15
*697 FILLER_24_160
*698 FILLER_24_172
*699 FILLER_24_184
*700 FILLER_24_197
*701 FILLER_24_209
*702 FILLER_24_221
*703 FILLER_24_233
*704 FILLER_24_245
*705 FILLER_24_251
*706 FILLER_24_253
*707 FILLER_24_265
*708 FILLER_24_27
*709 FILLER_24_277
*710 FILLER_24_289
*711 FILLER_24_29
*712 FILLER_24_3
*713 FILLER_24_301
*714 FILLER_24_307
*715 FILLER_24_309
*716 FILLER_24_321
*717 FILLER_24_329
*718 FILLER_24_336
*719 FILLER_24_41
*720 FILLER_24_53
*721 FILLER_24_65
*722 FILLER_24_77
*723 FILLER_24_83
*724 FILLER_24_85
*725 FILLER_24_97
*726 FILLER_25_105
*727 FILLER_25_111
*728 FILLER_25_113
*729 FILLER_25_125
*730 FILLER_25_136
*731 FILLER_25_142
*732 FILLER_25_149
*733 FILLER_25_15
*734 FILLER_25_161
*735 FILLER_25_167
*736 FILLER_25_169
*737 FILLER_25_181
*738 FILLER_25_193
*739 FILLER_25_205
*740 FILLER_25_217
*741 FILLER_25_223
*742 FILLER_25_225
*743 FILLER_25_237
*744 FILLER_25_249
*745 FILLER_25_261
*746 FILLER_25_27
*747 FILLER_25_273
*748 FILLER_25_279
*749 FILLER_25_281
*750 FILLER_25_293
*751 FILLER_25_3
*752 FILLER_25_305
*753 FILLER_25_317
*754 FILLER_25_325
*755 FILLER_25_334
*756 FILLER_25_337
*757 FILLER_25_39
*758 FILLER_25_51
*759 FILLER_25_55
*760 FILLER_25_57
*761 FILLER_25_69
*762 FILLER_25_81
*763 FILLER_25_93
*764 FILLER_26_103
*765 FILLER_26_108
*766 FILLER_26_117
*767 FILLER_26_126
*768 FILLER_26_136
*769 FILLER_26_141
*770 FILLER_26_15
*771 FILLER_26_153
*772 FILLER_26_165
*773 FILLER_26_177
*774 FILLER_26_189
*775 FILLER_26_195
*776 FILLER_26_197
*777 FILLER_26_209
*778 FILLER_26_221
*779 FILLER_26_233
*780 FILLER_26_245
*781 FILLER_26_251
*782 FILLER_26_253
*783 FILLER_26_265
*784 FILLER_26_27
*785 FILLER_26_277
*786 FILLER_26_289
*787 FILLER_26_29
*788 FILLER_26_3
*789 FILLER_26_301
*790 FILLER_26_307
*791 FILLER_26_309
*792 FILLER_26_321
*793 FILLER_26_329
*794 FILLER_26_336
*795 FILLER_26_41
*796 FILLER_26_53
*797 FILLER_26_65
*798 FILLER_26_77
*799 FILLER_26_83
*800 FILLER_26_85
*801 FILLER_26_97
*802 FILLER_27_100
*803 FILLER_27_106
*804 FILLER_27_113
*805 FILLER_27_120
*806 FILLER_27_128
*807 FILLER_27_140
*808 FILLER_27_15
*809 FILLER_27_152
*810 FILLER_27_164
*811 FILLER_27_169
*812 FILLER_27_181
*813 FILLER_27_193
*814 FILLER_27_205
*815 FILLER_27_217
*816 FILLER_27_223
*817 FILLER_27_225
*818 FILLER_27_237
*819 FILLER_27_249
*820 FILLER_27_261
*821 FILLER_27_27
*822 FILLER_27_273
*823 FILLER_27_279
*824 FILLER_27_281
*825 FILLER_27_293
*826 FILLER_27_3
*827 FILLER_27_305
*828 FILLER_27_317
*829 FILLER_27_329
*830 FILLER_27_335
*831 FILLER_27_337
*832 FILLER_27_39
*833 FILLER_27_51
*834 FILLER_27_55
*835 FILLER_27_57
*836 FILLER_27_69
*837 FILLER_27_75
*838 FILLER_27_80
*839 FILLER_27_92
*840 FILLER_28_107
*841 FILLER_28_114
*842 FILLER_28_126
*843 FILLER_28_138
*844 FILLER_28_141
*845 FILLER_28_15
*846 FILLER_28_153
*847 FILLER_28_165
*848 FILLER_28_177
*849 FILLER_28_189
*850 FILLER_28_195
*851 FILLER_28_197
*852 FILLER_28_209
*853 FILLER_28_221
*854 FILLER_28_233
*855 FILLER_28_245
*856 FILLER_28_251
*857 FILLER_28_253
*858 FILLER_28_265
*859 FILLER_28_27
*860 FILLER_28_277
*861 FILLER_28_289
*862 FILLER_28_29
*863 FILLER_28_3
*864 FILLER_28_301
*865 FILLER_28_307
*866 FILLER_28_309
*867 FILLER_28_321
*868 FILLER_28_333
*869 FILLER_28_337
*870 FILLER_28_41
*871 FILLER_28_53
*872 FILLER_28_65
*873 FILLER_28_71
*874 FILLER_28_78
*875 FILLER_28_85
*876 FILLER_28_90
*877 FILLER_28_94
*878 FILLER_28_99
*879 FILLER_29_110
*880 FILLER_29_113
*881 FILLER_29_125
*882 FILLER_29_137
*883 FILLER_29_149
*884 FILLER_29_15
*885 FILLER_29_161
*886 FILLER_29_167
*887 FILLER_29_169
*888 FILLER_29_181
*889 FILLER_29_193
*890 FILLER_29_205
*891 FILLER_29_217
*892 FILLER_29_223
*893 FILLER_29_225
*894 FILLER_29_237
*895 FILLER_29_249
*896 FILLER_29_261
*897 FILLER_29_27
*898 FILLER_29_273
*899 FILLER_29_279
*900 FILLER_29_281
*901 FILLER_29_293
*902 FILLER_29_3
*903 FILLER_29_305
*904 FILLER_29_317
*905 FILLER_29_329
*906 FILLER_29_335
*907 FILLER_29_337
*908 FILLER_29_39
*909 FILLER_29_51
*910 FILLER_29_55
*911 FILLER_29_57
*912 FILLER_29_63
*913 FILLER_29_68
*914 FILLER_29_79
*915 FILLER_29_87
*916 FILLER_29_93
*917 FILLER_29_98
*918 FILLER_2_109
*919 FILLER_2_121
*920 FILLER_2_133
*921 FILLER_2_139
*922 FILLER_2_141
*923 FILLER_2_15
*924 FILLER_2_153
*925 FILLER_2_165
*926 FILLER_2_177
*927 FILLER_2_189
*928 FILLER_2_195
*929 FILLER_2_197
*930 FILLER_2_209
*931 FILLER_2_221
*932 FILLER_2_233
*933 FILLER_2_245
*934 FILLER_2_251
*935 FILLER_2_253
*936 FILLER_2_265
*937 FILLER_2_27
*938 FILLER_2_277
*939 FILLER_2_289
*940 FILLER_2_29
*941 FILLER_2_3
*942 FILLER_2_301
*943 FILLER_2_307
*944 FILLER_2_309
*945 FILLER_2_321
*946 FILLER_2_333
*947 FILLER_2_337
*948 FILLER_2_41
*949 FILLER_2_53
*950 FILLER_2_65
*951 FILLER_2_77
*952 FILLER_2_83
*953 FILLER_2_85
*954 FILLER_2_97
*955 FILLER_30_109
*956 FILLER_30_121
*957 FILLER_30_133
*958 FILLER_30_139
*959 FILLER_30_141
*960 FILLER_30_15
*961 FILLER_30_153
*962 FILLER_30_165
*963 FILLER_30_177
*964 FILLER_30_189
*965 FILLER_30_195
*966 FILLER_30_197
*967 FILLER_30_209
*968 FILLER_30_221
*969 FILLER_30_233
*970 FILLER_30_245
*971 FILLER_30_251
*972 FILLER_30_253
*973 FILLER_30_265
*974 FILLER_30_27
*975 FILLER_30_277
*976 FILLER_30_289
*977 FILLER_30_29
*978 FILLER_30_3
*979 FILLER_30_301
*980 FILLER_30_307
*981 FILLER_30_309
*982 FILLER_30_321
*983 FILLER_30_333
*984 FILLER_30_337
*985 FILLER_30_41
*986 FILLER_30_53
*987 FILLER_30_65
*988 FILLER_30_69
*989 FILLER_30_74
*990 FILLER_30_82
*991 FILLER_30_85
*992 FILLER_30_97
*993 FILLER_31_108
*994 FILLER_31_113
*995 FILLER_31_125
*996 FILLER_31_137
*997 FILLER_31_149
*998 FILLER_31_15
*999 FILLER_31_161
*1000 FILLER_31_167
*1001 FILLER_31_169
*1002 FILLER_31_181
*1003 FILLER_31_193
*1004 FILLER_31_205
*1005 FILLER_31_217
*1006 FILLER_31_223
*1007 FILLER_31_225
*1008 FILLER_31_237
*1009 FILLER_31_249
*1010 FILLER_31_261
*1011 FILLER_31_27
*1012 FILLER_31_273
*1013 FILLER_31_279
*1014 FILLER_31_281
*1015 FILLER_31_293
*1016 FILLER_31_3
*1017 FILLER_31_305
*1018 FILLER_31_317
*1019 FILLER_31_329
*1020 FILLER_31_335
*1021 FILLER_31_337
*1022 FILLER_31_39
*1023 FILLER_31_51
*1024 FILLER_31_55
*1025 FILLER_31_57
*1026 FILLER_31_65
*1027 FILLER_31_72
*1028 FILLER_31_84
*1029 FILLER_31_96
*1030 FILLER_32_109
*1031 FILLER_32_121
*1032 FILLER_32_133
*1033 FILLER_32_139
*1034 FILLER_32_141
*1035 FILLER_32_15
*1036 FILLER_32_153
*1037 FILLER_32_165
*1038 FILLER_32_177
*1039 FILLER_32_189
*1040 FILLER_32_195
*1041 FILLER_32_197
*1042 FILLER_32_209
*1043 FILLER_32_221
*1044 FILLER_32_233
*1045 FILLER_32_245
*1046 FILLER_32_251
*1047 FILLER_32_253
*1048 FILLER_32_265
*1049 FILLER_32_27
*1050 FILLER_32_277
*1051 FILLER_32_289
*1052 FILLER_32_29
*1053 FILLER_32_3
*1054 FILLER_32_301
*1055 FILLER_32_307
*1056 FILLER_32_309
*1057 FILLER_32_321
*1058 FILLER_32_333
*1059 FILLER_32_337
*1060 FILLER_32_41
*1061 FILLER_32_53
*1062 FILLER_32_65
*1063 FILLER_32_77
*1064 FILLER_32_83
*1065 FILLER_32_85
*1066 FILLER_32_97
*1067 FILLER_33_104
*1068 FILLER_33_113
*1069 FILLER_33_125
*1070 FILLER_33_137
*1071 FILLER_33_149
*1072 FILLER_33_15
*1073 FILLER_33_161
*1074 FILLER_33_167
*1075 FILLER_33_169
*1076 FILLER_33_181
*1077 FILLER_33_193
*1078 FILLER_33_205
*1079 FILLER_33_217
*1080 FILLER_33_223
*1081 FILLER_33_225
*1082 FILLER_33_237
*1083 FILLER_33_249
*1084 FILLER_33_261
*1085 FILLER_33_27
*1086 FILLER_33_273
*1087 FILLER_33_279
*1088 FILLER_33_281
*1089 FILLER_33_293
*1090 FILLER_33_3
*1091 FILLER_33_305
*1092 FILLER_33_317
*1093 FILLER_33_329
*1094 FILLER_33_335
*1095 FILLER_33_337
*1096 FILLER_33_39
*1097 FILLER_33_51
*1098 FILLER_33_55
*1099 FILLER_33_57
*1100 FILLER_33_69
*1101 FILLER_33_81
*1102 FILLER_33_87
*1103 FILLER_33_92
*1104 FILLER_34_109
*1105 FILLER_34_121
*1106 FILLER_34_133
*1107 FILLER_34_139
*1108 FILLER_34_141
*1109 FILLER_34_15
*1110 FILLER_34_153
*1111 FILLER_34_165
*1112 FILLER_34_177
*1113 FILLER_34_189
*1114 FILLER_34_195
*1115 FILLER_34_197
*1116 FILLER_34_209
*1117 FILLER_34_221
*1118 FILLER_34_233
*1119 FILLER_34_248
*1120 FILLER_34_253
*1121 FILLER_34_265
*1122 FILLER_34_27
*1123 FILLER_34_277
*1124 FILLER_34_289
*1125 FILLER_34_29
*1126 FILLER_34_296
*1127 FILLER_34_3
*1128 FILLER_34_309
*1129 FILLER_34_321
*1130 FILLER_34_333
*1131 FILLER_34_337
*1132 FILLER_34_41
*1133 FILLER_34_53
*1134 FILLER_34_65
*1135 FILLER_34_77
*1136 FILLER_34_83
*1137 FILLER_34_85
*1138 FILLER_34_97
*1139 FILLER_35_103
*1140 FILLER_35_110
*1141 FILLER_35_113
*1142 FILLER_35_12
*1143 FILLER_35_120
*1144 FILLER_35_124
*1145 FILLER_35_128
*1146 FILLER_35_141
*1147 FILLER_35_153
*1148 FILLER_35_165
*1149 FILLER_35_169
*1150 FILLER_35_181
*1151 FILLER_35_19
*1152 FILLER_35_193
*1153 FILLER_35_197
*1154 FILLER_35_202
*1155 FILLER_35_210
*1156 FILLER_35_216
*1157 FILLER_35_225
*1158 FILLER_35_230
*1159 FILLER_35_237
*1160 FILLER_35_244
*1161 FILLER_35_253
*1162 FILLER_35_258
*1163 FILLER_35_26
*1164 FILLER_35_265
*1165 FILLER_35_272
*1166 FILLER_35_281
*1167 FILLER_35_286
*1168 FILLER_35_29
*1169 FILLER_35_293
*1170 FILLER_35_3
*1171 FILLER_35_305
*1172 FILLER_35_309
*1173 FILLER_35_315
*1174 FILLER_35_323
*1175 FILLER_35_331
*1176 FILLER_35_335
*1177 FILLER_35_337
*1178 FILLER_35_40
*1179 FILLER_35_47
*1180 FILLER_35_54
*1181 FILLER_35_57
*1182 FILLER_35_64
*1183 FILLER_35_76
*1184 FILLER_35_82
*1185 FILLER_35_85
*1186 FILLER_35_96
*1187 FILLER_3_105
*1188 FILLER_3_111
*1189 FILLER_3_113
*1190 FILLER_3_125
*1191 FILLER_3_137
*1192 FILLER_3_149
*1193 FILLER_3_15
*1194 FILLER_3_161
*1195 FILLER_3_167
*1196 FILLER_3_169
*1197 FILLER_3_181
*1198 FILLER_3_193
*1199 FILLER_3_205
*1200 FILLER_3_217
*1201 FILLER_3_223
*1202 FILLER_3_225
*1203 FILLER_3_237
*1204 FILLER_3_249
*1205 FILLER_3_261
*1206 FILLER_3_27
*1207 FILLER_3_273
*1208 FILLER_3_279
*1209 FILLER_3_281
*1210 FILLER_3_293
*1211 FILLER_3_3
*1212 FILLER_3_305
*1213 FILLER_3_317
*1214 FILLER_3_329
*1215 FILLER_3_335
*1216 FILLER_3_337
*1217 FILLER_3_39
*1218 FILLER_3_51
*1219 FILLER_3_55
*1220 FILLER_3_57
*1221 FILLER_3_69
*1222 FILLER_3_81
*1223 FILLER_3_93
*1224 FILLER_4_109
*1225 FILLER_4_121
*1226 FILLER_4_133
*1227 FILLER_4_139
*1228 FILLER_4_141
*1229 FILLER_4_15
*1230 FILLER_4_153
*1231 FILLER_4_165
*1232 FILLER_4_177
*1233 FILLER_4_189
*1234 FILLER_4_195
*1235 FILLER_4_197
*1236 FILLER_4_209
*1237 FILLER_4_221
*1238 FILLER_4_233
*1239 FILLER_4_245
*1240 FILLER_4_251
*1241 FILLER_4_253
*1242 FILLER_4_265
*1243 FILLER_4_27
*1244 FILLER_4_277
*1245 FILLER_4_289
*1246 FILLER_4_29
*1247 FILLER_4_3
*1248 FILLER_4_301
*1249 FILLER_4_307
*1250 FILLER_4_309
*1251 FILLER_4_321
*1252 FILLER_4_333
*1253 FILLER_4_337
*1254 FILLER_4_41
*1255 FILLER_4_53
*1256 FILLER_4_65
*1257 FILLER_4_77
*1258 FILLER_4_83
*1259 FILLER_4_85
*1260 FILLER_4_97
*1261 FILLER_5_105
*1262 FILLER_5_111
*1263 FILLER_5_113
*1264 FILLER_5_125
*1265 FILLER_5_137
*1266 FILLER_5_149
*1267 FILLER_5_15
*1268 FILLER_5_161
*1269 FILLER_5_167
*1270 FILLER_5_169
*1271 FILLER_5_181
*1272 FILLER_5_193
*1273 FILLER_5_205
*1274 FILLER_5_217
*1275 FILLER_5_223
*1276 FILLER_5_225
*1277 FILLER_5_237
*1278 FILLER_5_249
*1279 FILLER_5_261
*1280 FILLER_5_27
*1281 FILLER_5_273
*1282 FILLER_5_279
*1283 FILLER_5_281
*1284 FILLER_5_293
*1285 FILLER_5_3
*1286 FILLER_5_305
*1287 FILLER_5_317
*1288 FILLER_5_329
*1289 FILLER_5_335
*1290 FILLER_5_337
*1291 FILLER_5_39
*1292 FILLER_5_51
*1293 FILLER_5_55
*1294 FILLER_5_57
*1295 FILLER_5_69
*1296 FILLER_5_81
*1297 FILLER_5_93
*1298 FILLER_6_109
*1299 FILLER_6_121
*1300 FILLER_6_133
*1301 FILLER_6_139
*1302 FILLER_6_141
*1303 FILLER_6_15
*1304 FILLER_6_153
*1305 FILLER_6_165
*1306 FILLER_6_177
*1307 FILLER_6_189
*1308 FILLER_6_195
*1309 FILLER_6_197
*1310 FILLER_6_209
*1311 FILLER_6_221
*1312 FILLER_6_233
*1313 FILLER_6_245
*1314 FILLER_6_251
*1315 FILLER_6_253
*1316 FILLER_6_265
*1317 FILLER_6_27
*1318 FILLER_6_277
*1319 FILLER_6_289
*1320 FILLER_6_29
*1321 FILLER_6_3
*1322 FILLER_6_301
*1323 FILLER_6_307
*1324 FILLER_6_309
*1325 FILLER_6_321
*1326 FILLER_6_333
*1327 FILLER_6_337
*1328 FILLER_6_41
*1329 FILLER_6_53
*1330 FILLER_6_65
*1331 FILLER_6_77
*1332 FILLER_6_83
*1333 FILLER_6_85
*1334 FILLER_6_97
*1335 FILLER_7_105
*1336 FILLER_7_111
*1337 FILLER_7_113
*1338 FILLER_7_125
*1339 FILLER_7_137
*1340 FILLER_7_149
*1341 FILLER_7_15
*1342 FILLER_7_161
*1343 FILLER_7_167
*1344 FILLER_7_169
*1345 FILLER_7_181
*1346 FILLER_7_193
*1347 FILLER_7_205
*1348 FILLER_7_217
*1349 FILLER_7_223
*1350 FILLER_7_225
*1351 FILLER_7_237
*1352 FILLER_7_249
*1353 FILLER_7_261
*1354 FILLER_7_27
*1355 FILLER_7_273
*1356 FILLER_7_279
*1357 FILLER_7_281
*1358 FILLER_7_293
*1359 FILLER_7_3
*1360 FILLER_7_305
*1361 FILLER_7_317
*1362 FILLER_7_329
*1363 FILLER_7_335
*1364 FILLER_7_337
*1365 FILLER_7_39
*1366 FILLER_7_51
*1367 FILLER_7_55
*1368 FILLER_7_57
*1369 FILLER_7_69
*1370 FILLER_7_81
*1371 FILLER_7_93
*1372 FILLER_8_109
*1373 FILLER_8_121
*1374 FILLER_8_133
*1375 FILLER_8_139
*1376 FILLER_8_141
*1377 FILLER_8_15
*1378 FILLER_8_153
*1379 FILLER_8_165
*1380 FILLER_8_177
*1381 FILLER_8_189
*1382 FILLER_8_195
*1383 FILLER_8_197
*1384 FILLER_8_209
*1385 FILLER_8_221
*1386 FILLER_8_233
*1387 FILLER_8_245
*1388 FILLER_8_251
*1389 FILLER_8_253
*1390 FILLER_8_265
*1391 FILLER_8_27
*1392 FILLER_8_277
*1393 FILLER_8_289
*1394 FILLER_8_29
*1395 FILLER_8_3
*1396 FILLER_8_301
*1397 FILLER_8_307
*1398 FILLER_8_309
*1399 FILLER_8_321
*1400 FILLER_8_333
*1401 FILLER_8_337
*1402 FILLER_8_41
*1403 FILLER_8_53
*1404 FILLER_8_65
*1405 FILLER_8_77
*1406 FILLER_8_83
*1407 FILLER_8_85
*1408 FILLER_8_97
*1409 FILLER_9_105
*1410 FILLER_9_111
*1411 FILLER_9_113
*1412 FILLER_9_125
*1413 FILLER_9_137
*1414 FILLER_9_149
*1415 FILLER_9_15
*1416 FILLER_9_161
*1417 FILLER_9_167
*1418 FILLER_9_169
*1419 FILLER_9_181
*1420 FILLER_9_193
*1421 FILLER_9_205
*1422 FILLER_9_217
*1423 FILLER_9_223
*1424 FILLER_9_225
*1425 FILLER_9_237
*1426 FILLER_9_249
*1427 FILLER_9_261
*1428 FILLER_9_27
*1429 FILLER_9_273
*1430 FILLER_9_279
*1431 FILLER_9_281
*1432 FILLER_9_293
*1433 FILLER_9_3
*1434 FILLER_9_305
*1435 FILLER_9_317
*1436 FILLER_9_329
*1437 FILLER_9_335
*1438 FILLER_9_337
*1439 FILLER_9_39
*1440 FILLER_9_51
*1441 FILLER_9_55
*1442 FILLER_9_57
*1443 FILLER_9_69
*1444 FILLER_9_81
*1445 FILLER_9_93
*1446 PHY_0
*1447 PHY_1
*1448 PHY_10
*1449 PHY_11
*1450 PHY_12
*1451 PHY_13
*1452 PHY_14
*1453 PHY_15
*1454 PHY_16
*1455 PHY_17
*1456 PHY_18
*1457 PHY_19
*1458 PHY_2
*1459 PHY_20
*1460 PHY_21
*1461 PHY_22
*1462 PHY_23
*1463 PHY_24
*1464 PHY_25
*1465 PHY_26
*1466 PHY_27
*1467 PHY_28
*1468 PHY_29
*1469 PHY_3
*1470 PHY_30
*1471 PHY_31
*1472 PHY_32
*1473 PHY_33
*1474 PHY_34
*1475 PHY_35
*1476 PHY_36
*1477 PHY_37
*1478 PHY_38
*1479 PHY_39
*1480 PHY_4
*1481 PHY_40
*1482 PHY_41
*1483 PHY_42
*1484 PHY_43
*1485 PHY_44
*1486 PHY_45
*1487 PHY_46
*1488 PHY_47
*1489 PHY_48
*1490 PHY_49
*1491 PHY_5
*1492 PHY_50
*1493 PHY_51
*1494 PHY_52
*1495 PHY_53
*1496 PHY_54
*1497 PHY_55
*1498 PHY_56
*1499 PHY_57
*1500 PHY_58
*1501 PHY_59
*1502 PHY_6
*1503 PHY_60
*1504 PHY_61
*1505 PHY_62
*1506 PHY_63
*1507 PHY_64
*1508 PHY_65
*1509 PHY_66
*1510 PHY_67
*1511 PHY_68
*1512 PHY_69
*1513 PHY_7
*1514 PHY_70
*1515 PHY_71
*1516 PHY_8
*1517 PHY_9
*1518 TAP_100
*1519 TAP_101
*1520 TAP_102
*1521 TAP_103
*1522 TAP_104
*1523 TAP_105
*1524 TAP_106
*1525 TAP_107
*1526 TAP_108
*1527 TAP_109
*1528 TAP_110
*1529 TAP_111
*1530 TAP_112
*1531 TAP_113
*1532 TAP_114
*1533 TAP_115
*1534 TAP_116
*1535 TAP_117
*1536 TAP_118
*1537 TAP_119
*1538 TAP_120
*1539 TAP_121
*1540 TAP_122
*1541 TAP_123
*1542 TAP_124
*1543 TAP_125
*1544 TAP_126
*1545 TAP_127
*1546 TAP_128
*1547 TAP_129
*1548 TAP_130
*1549 TAP_131
*1550 TAP_132
*1551 TAP_133
*1552 TAP_134
*1553 TAP_135
*1554 TAP_136
*1555 TAP_137
*1556 TAP_138
*1557 TAP_139
*1558 TAP_140
*1559 TAP_141
*1560 TAP_142
*1561 TAP_143
*1562 TAP_144
*1563 TAP_145
*1564 TAP_146
*1565 TAP_147
*1566 TAP_148
*1567 TAP_149
*1568 TAP_150
*1569 TAP_151
*1570 TAP_152
*1571 TAP_153
*1572 TAP_154
*1573 TAP_155
*1574 TAP_156
*1575 TAP_157
*1576 TAP_158
*1577 TAP_159
*1578 TAP_160
*1579 TAP_161
*1580 TAP_162
*1581 TAP_163
*1582 TAP_164
*1583 TAP_165
*1584 TAP_166
*1585 TAP_167
*1586 TAP_168
*1587 TAP_169
*1588 TAP_170
*1589 TAP_171
*1590 TAP_172
*1591 TAP_173
*1592 TAP_174
*1593 TAP_175
*1594 TAP_176
*1595 TAP_177
*1596 TAP_178
*1597 TAP_179
*1598 TAP_180
*1599 TAP_181
*1600 TAP_182
*1601 TAP_183
*1602 TAP_184
*1603 TAP_185
*1604 TAP_186
*1605 TAP_187
*1606 TAP_188
*1607 TAP_189
*1608 TAP_190
*1609 TAP_191
*1610 TAP_192
*1611 TAP_193
*1612 TAP_194
*1613 TAP_195
*1614 TAP_196
*1615 TAP_197
*1616 TAP_198
*1617 TAP_199
*1618 TAP_200
*1619 TAP_201
*1620 TAP_202
*1621 TAP_203
*1622 TAP_204
*1623 TAP_205
*1624 TAP_206
*1625 TAP_207
*1626 TAP_208
*1627 TAP_209
*1628 TAP_210
*1629 TAP_211
*1630 TAP_212
*1631 TAP_213
*1632 TAP_214
*1633 TAP_215
*1634 TAP_216
*1635 TAP_217
*1636 TAP_218
*1637 TAP_219
*1638 TAP_220
*1639 TAP_221
*1640 TAP_222
*1641 TAP_223
*1642 TAP_224
*1643 TAP_225
*1644 TAP_226
*1645 TAP_227
*1646 TAP_228
*1647 TAP_229
*1648 TAP_230
*1649 TAP_231
*1650 TAP_232
*1651 TAP_233
*1652 TAP_234
*1653 TAP_235
*1654 TAP_236
*1655 TAP_237
*1656 TAP_238
*1657 TAP_239
*1658 TAP_240
*1659 TAP_241
*1660 TAP_242
*1661 TAP_243
*1662 TAP_244
*1663 TAP_245
*1664 TAP_246
*1665 TAP_247
*1666 TAP_248
*1667 TAP_249
*1668 TAP_250
*1669 TAP_251
*1670 TAP_252
*1671 TAP_253
*1672 TAP_254
*1673 TAP_255
*1674 TAP_256
*1675 TAP_257
*1676 TAP_258
*1677 TAP_259
*1678 TAP_260
*1679 TAP_261
*1680 TAP_262
*1681 TAP_263
*1682 TAP_264
*1683 TAP_265
*1684 TAP_266
*1685 TAP_267
*1686 TAP_268
*1687 TAP_269
*1688 TAP_270