*SPEF "ieee 1481-1999"
*DESIGN "tt_um_test"
*DATE "11:11:11 Fri 11 11, 1111"
*VENDOR "OpenRCX"
*PROGRAM "Parallel Extraction"
*VERSION "1.0"
*DESIGN_FLOW "NAME_SCOPE LOCAL" "PIN_CAP NONE"
*DIVIDER /
*DELIMITER :
*BUS_DELIMITER []
*T_UNIT 1 NS
*C_UNIT 1 PF
*R_UNIT 1 OHM
*L_UNIT 1 HENRY

*NAME_MAP
*1 clk
*2 ena
*3 rst_n
*4 ui_in[0]
*5 ui_in[1]
*6 ui_in[2]
*7 ui_in[3]
*8 ui_in[4]
*9 ui_in[5]
*10 ui_in[6]
*11 ui_in[7]
*12 uio_in[0]
*13 uio_in[1]
*14 uio_in[2]
*15 uio_in[3]
*16 uio_in[4]
*17 uio_in[5]
*18 uio_in[6]
*19 uio_in[7]
*20 uio_oe[0]
*21 uio_oe[1]
*22 uio_oe[2]
*23 uio_oe[3]
*24 uio_oe[4]
*25 uio_oe[5]
*26 uio_oe[6]
*27 uio_oe[7]
*28 uio_out[0]
*29 uio_out[1]
*30 uio_out[2]
*31 uio_out[3]
*32 uio_out[4]
*33 uio_out[5]
*34 uio_out[6]
*35 uio_out[7]
*36 uo_out[0]
*37 uo_out[1]
*38 uo_out[2]
*39 uo_out[3]
*40 uo_out[4]
*41 uo_out[5]
*42 uo_out[6]
*43 uo_out[7]
*46 _000_
*47 _001_
*48 _002_
*49 _003_
*50 _004_
*51 _005_
*52 _006_
*53 _007_
*54 _008_
*55 _009_
*56 _010_
*57 _011_
*58 _012_
*59 _013_
*60 _014_
*61 _015_
*62 _016_
*63 _017_
*64 _018_
*65 _019_
*66 _020_
*67 _021_
*68 _022_
*69 _023_
*70 _024_
*71 _025_
*72 _026_
*73 _027_
*74 _028_
*75 _029_
*76 _030_
*77 _031_
*78 _032_
*79 _033_
*80 clknet_0_clk
*81 clknet_1_0__leaf_clk
*82 clknet_1_1__leaf_clk
*83 cnt\[0\]
*84 cnt\[1\]
*85 cnt\[2\]
*86 cnt\[3\]
*87 cnt\[4\]
*88 cnt\[5\]
*89 cnt\[6\]
*90 cnt\[7\]
*91 net1
*92 net10
*93 net11
*94 net12
*95 net13
*96 net14
*97 net2
*98 net3
*99 net4
*100 net5
*101 net6
*102 net7
*103 net8
*104 net9
*105 rst_n_i
*106 FILLER_0_0_109
*107 FILLER_0_0_113
*108 FILLER_0_0_125
*109 FILLER_0_0_137
*110 FILLER_0_0_141
*111 FILLER_0_0_15
*112 FILLER_0_0_153
*113 FILLER_0_0_165
*114 FILLER_0_0_169
*115 FILLER_0_0_181
*116 FILLER_0_0_193
*117 FILLER_0_0_197
*118 FILLER_0_0_209
*119 FILLER_0_0_221
*120 FILLER_0_0_225
*121 FILLER_0_0_237
*122 FILLER_0_0_249
*123 FILLER_0_0_253
*124 FILLER_0_0_265
*125 FILLER_0_0_27
*126 FILLER_0_0_277
*127 FILLER_0_0_281
*128 FILLER_0_0_29
*129 FILLER_0_0_293
*130 FILLER_0_0_3
*131 FILLER_0_0_305
*132 FILLER_0_0_309
*133 FILLER_0_0_321
*134 FILLER_0_0_333
*135 FILLER_0_0_337
*136 FILLER_0_0_41
*137 FILLER_0_0_53
*138 FILLER_0_0_57
*139 FILLER_0_0_69
*140 FILLER_0_0_81
*141 FILLER_0_0_85
*142 FILLER_0_0_97
*143 FILLER_0_10_109
*144 FILLER_0_10_121
*145 FILLER_0_10_133
*146 FILLER_0_10_139
*147 FILLER_0_10_141
*148 FILLER_0_10_15
*149 FILLER_0_10_153
*150 FILLER_0_10_165
*151 FILLER_0_10_177
*152 FILLER_0_10_189
*153 FILLER_0_10_195
*154 FILLER_0_10_197
*155 FILLER_0_10_209
*156 FILLER_0_10_221
*157 FILLER_0_10_233
*158 FILLER_0_10_245
*159 FILLER_0_10_251
*160 FILLER_0_10_253
*161 FILLER_0_10_265
*162 FILLER_0_10_27
*163 FILLER_0_10_277
*164 FILLER_0_10_289
*165 FILLER_0_10_29
*166 FILLER_0_10_3
*167 FILLER_0_10_301
*168 FILLER_0_10_307
*169 FILLER_0_10_309
*170 FILLER_0_10_321
*171 FILLER_0_10_333
*172 FILLER_0_10_337
*173 FILLER_0_10_41
*174 FILLER_0_10_53
*175 FILLER_0_10_65
*176 FILLER_0_10_77
*177 FILLER_0_10_83
*178 FILLER_0_10_85
*179 FILLER_0_10_97
*180 FILLER_0_11_105
*181 FILLER_0_11_111
*182 FILLER_0_11_113
*183 FILLER_0_11_125
*184 FILLER_0_11_137
*185 FILLER_0_11_149
*186 FILLER_0_11_15
*187 FILLER_0_11_161
*188 FILLER_0_11_167
*189 FILLER_0_11_169
*190 FILLER_0_11_181
*191 FILLER_0_11_193
*192 FILLER_0_11_205
*193 FILLER_0_11_217
*194 FILLER_0_11_223
*195 FILLER_0_11_225
*196 FILLER_0_11_237
*197 FILLER_0_11_249
*198 FILLER_0_11_261
*199 FILLER_0_11_27
*200 FILLER_0_11_273
*201 FILLER_0_11_279
*202 FILLER_0_11_281
*203 FILLER_0_11_293
*204 FILLER_0_11_3
*205 FILLER_0_11_305
*206 FILLER_0_11_317
*207 FILLER_0_11_329
*208 FILLER_0_11_335
*209 FILLER_0_11_337
*210 FILLER_0_11_39
*211 FILLER_0_11_51
*212 FILLER_0_11_55
*213 FILLER_0_11_57
*214 FILLER_0_11_69
*215 FILLER_0_11_81
*216 FILLER_0_11_93
*217 FILLER_0_12_109
*218 FILLER_0_12_121
*219 FILLER_0_12_133
*220 FILLER_0_12_139
*221 FILLER_0_12_141
*222 FILLER_0_12_15
*223 FILLER_0_12_153
*224 FILLER_0_12_165
*225 FILLER_0_12_177
*226 FILLER_0_12_189
*227 FILLER_0_12_195
*228 FILLER_0_12_197
*229 FILLER_0_12_209
*230 FILLER_0_12_221
*231 FILLER_0_12_233
*232 FILLER_0_12_245
*233 FILLER_0_12_251
*234 FILLER_0_12_253
*235 FILLER_0_12_265
*236 FILLER_0_12_27
*237 FILLER_0_12_277
*238 FILLER_0_12_289
*239 FILLER_0_12_29
*240 FILLER_0_12_3
*241 FILLER_0_12_301
*242 FILLER_0_12_307
*243 FILLER_0_12_309
*244 FILLER_0_12_321
*245 FILLER_0_12_333
*246 FILLER_0_12_337
*247 FILLER_0_12_41
*248 FILLER_0_12_53
*249 FILLER_0_12_65
*250 FILLER_0_12_77
*251 FILLER_0_12_83
*252 FILLER_0_12_85
*253 FILLER_0_12_97
*254 FILLER_0_13_105
*255 FILLER_0_13_111
*256 FILLER_0_13_113
*257 FILLER_0_13_125
*258 FILLER_0_13_137
*259 FILLER_0_13_149
*260 FILLER_0_13_15
*261 FILLER_0_13_161
*262 FILLER_0_13_167
*263 FILLER_0_13_169
*264 FILLER_0_13_181
*265 FILLER_0_13_193
*266 FILLER_0_13_205
*267 FILLER_0_13_217
*268 FILLER_0_13_223
*269 FILLER_0_13_225
*270 FILLER_0_13_237
*271 FILLER_0_13_249
*272 FILLER_0_13_261
*273 FILLER_0_13_27
*274 FILLER_0_13_273
*275 FILLER_0_13_279
*276 FILLER_0_13_281
*277 FILLER_0_13_293
*278 FILLER_0_13_3
*279 FILLER_0_13_305
*280 FILLER_0_13_317
*281 FILLER_0_13_329
*282 FILLER_0_13_335
*283 FILLER_0_13_337
*284 FILLER_0_13_39
*285 FILLER_0_13_51
*286 FILLER_0_13_55
*287 FILLER_0_13_57
*288 FILLER_0_13_69
*289 FILLER_0_13_81
*290 FILLER_0_13_93
*291 FILLER_0_14_109
*292 FILLER_0_14_121
*293 FILLER_0_14_133
*294 FILLER_0_14_139
*295 FILLER_0_14_141
*296 FILLER_0_14_15
*297 FILLER_0_14_153
*298 FILLER_0_14_165
*299 FILLER_0_14_177
*300 FILLER_0_14_189
*301 FILLER_0_14_195
*302 FILLER_0_14_197
*303 FILLER_0_14_209
*304 FILLER_0_14_221
*305 FILLER_0_14_233
*306 FILLER_0_14_245
*307 FILLER_0_14_251
*308 FILLER_0_14_253
*309 FILLER_0_14_265
*310 FILLER_0_14_27
*311 FILLER_0_14_277
*312 FILLER_0_14_289
*313 FILLER_0_14_29
*314 FILLER_0_14_3
*315 FILLER_0_14_301
*316 FILLER_0_14_307
*317 FILLER_0_14_309
*318 FILLER_0_14_321
*319 FILLER_0_14_333
*320 FILLER_0_14_337
*321 FILLER_0_14_41
*322 FILLER_0_14_53
*323 FILLER_0_14_65
*324 FILLER_0_14_77
*325 FILLER_0_14_83
*326 FILLER_0_14_85
*327 FILLER_0_14_97
*328 FILLER_0_15_105
*329 FILLER_0_15_111
*330 FILLER_0_15_113
*331 FILLER_0_15_125
*332 FILLER_0_15_137
*333 FILLER_0_15_149
*334 FILLER_0_15_15
*335 FILLER_0_15_161
*336 FILLER_0_15_167
*337 FILLER_0_15_169
*338 FILLER_0_15_181
*339 FILLER_0_15_193
*340 FILLER_0_15_205
*341 FILLER_0_15_217
*342 FILLER_0_15_223
*343 FILLER_0_15_225
*344 FILLER_0_15_237
*345 FILLER_0_15_249
*346 FILLER_0_15_261
*347 FILLER_0_15_27
*348 FILLER_0_15_273
*349 FILLER_0_15_279
*350 FILLER_0_15_281
*351 FILLER_0_15_293
*352 FILLER_0_15_3
*353 FILLER_0_15_305
*354 FILLER_0_15_317
*355 FILLER_0_15_329
*356 FILLER_0_15_335
*357 FILLER_0_15_337
*358 FILLER_0_15_39
*359 FILLER_0_15_51
*360 FILLER_0_15_55
*361 FILLER_0_15_57
*362 FILLER_0_15_69
*363 FILLER_0_15_81
*364 FILLER_0_15_93
*365 FILLER_0_16_109
*366 FILLER_0_16_121
*367 FILLER_0_16_133
*368 FILLER_0_16_139
*369 FILLER_0_16_141
*370 FILLER_0_16_15
*371 FILLER_0_16_153
*372 FILLER_0_16_165
*373 FILLER_0_16_177
*374 FILLER_0_16_189
*375 FILLER_0_16_195
*376 FILLER_0_16_197
*377 FILLER_0_16_209
*378 FILLER_0_16_221
*379 FILLER_0_16_233
*380 FILLER_0_16_245
*381 FILLER_0_16_251
*382 FILLER_0_16_253
*383 FILLER_0_16_265
*384 FILLER_0_16_27
*385 FILLER_0_16_277
*386 FILLER_0_16_289
*387 FILLER_0_16_29
*388 FILLER_0_16_3
*389 FILLER_0_16_301
*390 FILLER_0_16_307
*391 FILLER_0_16_309
*392 FILLER_0_16_321
*393 FILLER_0_16_333
*394 FILLER_0_16_337
*395 FILLER_0_16_41
*396 FILLER_0_16_53
*397 FILLER_0_16_65
*398 FILLER_0_16_77
*399 FILLER_0_16_83
*400 FILLER_0_16_85
*401 FILLER_0_16_97
*402 FILLER_0_17_105
*403 FILLER_0_17_111
*404 FILLER_0_17_113
*405 FILLER_0_17_125
*406 FILLER_0_17_137
*407 FILLER_0_17_149
*408 FILLER_0_17_15
*409 FILLER_0_17_161
*410 FILLER_0_17_167
*411 FILLER_0_17_169
*412 FILLER_0_17_181
*413 FILLER_0_17_193
*414 FILLER_0_17_205
*415 FILLER_0_17_217
*416 FILLER_0_17_223
*417 FILLER_0_17_225
*418 FILLER_0_17_237
*419 FILLER_0_17_249
*420 FILLER_0_17_261
*421 FILLER_0_17_27
*422 FILLER_0_17_273
*423 FILLER_0_17_279
*424 FILLER_0_17_281
*425 FILLER_0_17_293
*426 FILLER_0_17_3
*427 FILLER_0_17_305
*428 FILLER_0_17_317
*429 FILLER_0_17_329
*430 FILLER_0_17_335
*431 FILLER_0_17_337
*432 FILLER_0_17_39
*433 FILLER_0_17_51
*434 FILLER_0_17_55
*435 FILLER_0_17_57
*436 FILLER_0_17_69
*437 FILLER_0_17_81
*438 FILLER_0_17_93
*439 FILLER_0_18_109
*440 FILLER_0_18_121
*441 FILLER_0_18_133
*442 FILLER_0_18_139
*443 FILLER_0_18_141
*444 FILLER_0_18_15
*445 FILLER_0_18_153
*446 FILLER_0_18_165
*447 FILLER_0_18_177
*448 FILLER_0_18_189
*449 FILLER_0_18_195
*450 FILLER_0_18_197
*451 FILLER_0_18_209
*452 FILLER_0_18_221
*453 FILLER_0_18_233
*454 FILLER_0_18_245
*455 FILLER_0_18_251
*456 FILLER_0_18_253
*457 FILLER_0_18_265
*458 FILLER_0_18_27
*459 FILLER_0_18_277
*460 FILLER_0_18_289
*461 FILLER_0_18_29
*462 FILLER_0_18_3
*463 FILLER_0_18_301
*464 FILLER_0_18_307
*465 FILLER_0_18_309
*466 FILLER_0_18_321
*467 FILLER_0_18_333
*468 FILLER_0_18_337
*469 FILLER_0_18_41
*470 FILLER_0_18_53
*471 FILLER_0_18_65
*472 FILLER_0_18_77
*473 FILLER_0_18_83
*474 FILLER_0_18_85
*475 FILLER_0_18_97
*476 FILLER_0_19_105
*477 FILLER_0_19_111
*478 FILLER_0_19_113
*479 FILLER_0_19_125
*480 FILLER_0_19_137
*481 FILLER_0_19_149
*482 FILLER_0_19_15
*483 FILLER_0_19_161
*484 FILLER_0_19_167
*485 FILLER_0_19_169
*486 FILLER_0_19_181
*487 FILLER_0_19_193
*488 FILLER_0_19_205
*489 FILLER_0_19_217
*490 FILLER_0_19_223
*491 FILLER_0_19_225
*492 FILLER_0_19_237
*493 FILLER_0_19_249
*494 FILLER_0_19_261
*495 FILLER_0_19_27
*496 FILLER_0_19_273
*497 FILLER_0_19_279
*498 FILLER_0_19_281
*499 FILLER_0_19_293
*500 FILLER_0_19_3
*501 FILLER_0_19_305
*502 FILLER_0_19_317
*503 FILLER_0_19_329
*504 FILLER_0_19_335
*505 FILLER_0_19_337
*506 FILLER_0_19_39
*507 FILLER_0_19_51
*508 FILLER_0_19_55
*509 FILLER_0_19_57
*510 FILLER_0_19_69
*511 FILLER_0_19_81
*512 FILLER_0_19_93
*513 FILLER_0_1_105
*514 FILLER_0_1_111
*515 FILLER_0_1_113
*516 FILLER_0_1_125
*517 FILLER_0_1_137
*518 FILLER_0_1_149
*519 FILLER_0_1_15
*520 FILLER_0_1_161
*521 FILLER_0_1_167
*522 FILLER_0_1_169
*523 FILLER_0_1_181
*524 FILLER_0_1_193
*525 FILLER_0_1_205
*526 FILLER_0_1_217
*527 FILLER_0_1_223
*528 FILLER_0_1_225
*529 FILLER_0_1_237
*530 FILLER_0_1_249
*531 FILLER_0_1_261
*532 FILLER_0_1_27
*533 FILLER_0_1_273
*534 FILLER_0_1_279
*535 FILLER_0_1_281
*536 FILLER_0_1_293
*537 FILLER_0_1_3
*538 FILLER_0_1_305
*539 FILLER_0_1_317
*540 FILLER_0_1_329
*541 FILLER_0_1_335
*542 FILLER_0_1_337
*543 FILLER_0_1_39
*544 FILLER_0_1_51
*545 FILLER_0_1_55
*546 FILLER_0_1_57
*547 FILLER_0_1_69
*548 FILLER_0_1_81
*549 FILLER_0_1_93
*550 FILLER_0_20_109
*551 FILLER_0_20_121
*552 FILLER_0_20_133
*553 FILLER_0_20_139
*554 FILLER_0_20_141
*555 FILLER_0_20_15
*556 FILLER_0_20_153
*557 FILLER_0_20_165
*558 FILLER_0_20_177
*559 FILLER_0_20_189
*560 FILLER_0_20_195
*561 FILLER_0_20_197
*562 FILLER_0_20_209
*563 FILLER_0_20_221
*564 FILLER_0_20_233
*565 FILLER_0_20_245
*566 FILLER_0_20_251
*567 FILLER_0_20_253
*568 FILLER_0_20_265
*569 FILLER_0_20_27
*570 FILLER_0_20_277
*571 FILLER_0_20_289
*572 FILLER_0_20_29
*573 FILLER_0_20_3
*574 FILLER_0_20_301
*575 FILLER_0_20_307
*576 FILLER_0_20_309
*577 FILLER_0_20_321
*578 FILLER_0_20_333
*579 FILLER_0_20_337
*580 FILLER_0_20_41
*581 FILLER_0_20_53
*582 FILLER_0_20_65
*583 FILLER_0_20_77
*584 FILLER_0_20_83
*585 FILLER_0_20_85
*586 FILLER_0_20_97
*587 FILLER_0_21_105
*588 FILLER_0_21_111
*589 FILLER_0_21_113
*590 FILLER_0_21_125
*591 FILLER_0_21_137
*592 FILLER_0_21_149
*593 FILLER_0_21_15
*594 FILLER_0_21_161
*595 FILLER_0_21_167
*596 FILLER_0_21_169
*597 FILLER_0_21_181
*598 FILLER_0_21_193
*599 FILLER_0_21_205
*600 FILLER_0_21_217
*601 FILLER_0_21_223
*602 FILLER_0_21_225
*603 FILLER_0_21_237
*604 FILLER_0_21_249
*605 FILLER_0_21_261
*606 FILLER_0_21_27
*607 FILLER_0_21_273
*608 FILLER_0_21_279
*609 FILLER_0_21_281
*610 FILLER_0_21_293
*611 FILLER_0_21_3
*612 FILLER_0_21_305
*613 FILLER_0_21_317
*614 FILLER_0_21_329
*615 FILLER_0_21_335
*616 FILLER_0_21_337
*617 FILLER_0_21_39
*618 FILLER_0_21_51
*619 FILLER_0_21_55
*620 FILLER_0_21_57
*621 FILLER_0_21_69
*622 FILLER_0_21_81
*623 FILLER_0_21_93
*624 FILLER_0_22_109
*625 FILLER_0_22_121
*626 FILLER_0_22_133
*627 FILLER_0_22_139
*628 FILLER_0_22_141
*629 FILLER_0_22_15
*630 FILLER_0_22_153
*631 FILLER_0_22_165
*632 FILLER_0_22_177
*633 FILLER_0_22_189
*634 FILLER_0_22_195
*635 FILLER_0_22_197
*636 FILLER_0_22_209
*637 FILLER_0_22_221
*638 FILLER_0_22_233
*639 FILLER_0_22_245
*640 FILLER_0_22_251
*641 FILLER_0_22_253
*642 FILLER_0_22_265
*643 FILLER_0_22_27
*644 FILLER_0_22_277
*645 FILLER_0_22_289
*646 FILLER_0_22_29
*647 FILLER_0_22_3
*648 FILLER_0_22_301
*649 FILLER_0_22_307
*650 FILLER_0_22_309
*651 FILLER_0_22_321
*652 FILLER_0_22_333
*653 FILLER_0_22_337
*654 FILLER_0_22_41
*655 FILLER_0_22_53
*656 FILLER_0_22_65
*657 FILLER_0_22_77
*658 FILLER_0_22_83
*659 FILLER_0_22_85
*660 FILLER_0_22_97
*661 FILLER_0_23_105
*662 FILLER_0_23_111
*663 FILLER_0_23_113
*664 FILLER_0_23_125
*665 FILLER_0_23_137
*666 FILLER_0_23_149
*667 FILLER_0_23_15
*668 FILLER_0_23_161
*669 FILLER_0_23_167
*670 FILLER_0_23_169
*671 FILLER_0_23_181
*672 FILLER_0_23_193
*673 FILLER_0_23_205
*674 FILLER_0_23_217
*675 FILLER_0_23_223
*676 FILLER_0_23_225
*677 FILLER_0_23_237
*678 FILLER_0_23_249
*679 FILLER_0_23_261
*680 FILLER_0_23_27
*681 FILLER_0_23_273
*682 FILLER_0_23_279
*683 FILLER_0_23_281
*684 FILLER_0_23_293
*685 FILLER_0_23_3
*686 FILLER_0_23_305
*687 FILLER_0_23_317
*688 FILLER_0_23_329
*689 FILLER_0_23_335
*690 FILLER_0_23_337
*691 FILLER_0_23_39
*692 FILLER_0_23_51
*693 FILLER_0_23_55
*694 FILLER_0_23_57
*695 FILLER_0_23_69
*696 FILLER_0_23_81
*697 FILLER_0_23_93
*698 FILLER_0_24_109
*699 FILLER_0_24_121
*700 FILLER_0_24_133
*701 FILLER_0_24_139
*702 FILLER_0_24_141
*703 FILLER_0_24_15
*704 FILLER_0_24_153
*705 FILLER_0_24_165
*706 FILLER_0_24_177
*707 FILLER_0_24_189
*708 FILLER_0_24_195
*709 FILLER_0_24_197
*710 FILLER_0_24_209
*711 FILLER_0_24_221
*712 FILLER_0_24_233
*713 FILLER_0_24_245
*714 FILLER_0_24_251
*715 FILLER_0_24_253
*716 FILLER_0_24_265
*717 FILLER_0_24_27
*718 FILLER_0_24_277
*719 FILLER_0_24_289
*720 FILLER_0_24_29
*721 FILLER_0_24_3
*722 FILLER_0_24_301
*723 FILLER_0_24_307
*724 FILLER_0_24_309
*725 FILLER_0_24_321
*726 FILLER_0_24_333
*727 FILLER_0_24_337
*728 FILLER_0_24_41
*729 FILLER_0_24_53
*730 FILLER_0_24_65
*731 FILLER_0_24_77
*732 FILLER_0_24_83
*733 FILLER_0_24_85
*734 FILLER_0_24_97
*735 FILLER_0_25_105
*736 FILLER_0_25_111
*737 FILLER_0_25_113
*738 FILLER_0_25_125
*739 FILLER_0_25_137
*740 FILLER_0_25_149
*741 FILLER_0_25_15
*742 FILLER_0_25_161
*743 FILLER_0_25_167
*744 FILLER_0_25_169
*745 FILLER_0_25_181
*746 FILLER_0_25_193
*747 FILLER_0_25_205
*748 FILLER_0_25_217
*749 FILLER_0_25_223
*750 FILLER_0_25_225
*751 FILLER_0_25_237
*752 FILLER_0_25_249
*753 FILLER_0_25_261
*754 FILLER_0_25_27
*755 FILLER_0_25_273
*756 FILLER_0_25_279
*757 FILLER_0_25_281
*758 FILLER_0_25_293
*759 FILLER_0_25_3
*760 FILLER_0_25_305
*761 FILLER_0_25_317
*762 FILLER_0_25_329
*763 FILLER_0_25_335
*764 FILLER_0_25_337
*765 FILLER_0_25_39
*766 FILLER_0_25_51
*767 FILLER_0_25_55
*768 FILLER_0_25_57
*769 FILLER_0_25_69
*770 FILLER_0_25_81
*771 FILLER_0_25_93
*772 FILLER_0_26_109
*773 FILLER_0_26_121
*774 FILLER_0_26_133
*775 FILLER_0_26_139
*776 FILLER_0_26_141
*777 FILLER_0_26_15
*778 FILLER_0_26_153
*779 FILLER_0_26_165
*780 FILLER_0_26_177
*781 FILLER_0_26_189
*782 FILLER_0_26_195
*783 FILLER_0_26_197
*784 FILLER_0_26_209
*785 FILLER_0_26_221
*786 FILLER_0_26_233
*787 FILLER_0_26_245
*788 FILLER_0_26_251
*789 FILLER_0_26_253
*790 FILLER_0_26_265
*791 FILLER_0_26_27
*792 FILLER_0_26_277
*793 FILLER_0_26_289
*794 FILLER_0_26_29
*795 FILLER_0_26_3
*796 FILLER_0_26_301
*797 FILLER_0_26_307
*798 FILLER_0_26_309
*799 FILLER_0_26_321
*800 FILLER_0_26_333
*801 FILLER_0_26_337
*802 FILLER_0_26_41
*803 FILLER_0_26_53
*804 FILLER_0_26_65
*805 FILLER_0_26_77
*806 FILLER_0_26_83
*807 FILLER_0_26_85
*808 FILLER_0_26_97
*809 FILLER_0_27_105
*810 FILLER_0_27_111
*811 FILLER_0_27_113
*812 FILLER_0_27_125
*813 FILLER_0_27_137
*814 FILLER_0_27_149
*815 FILLER_0_27_15
*816 FILLER_0_27_161
*817 FILLER_0_27_167
*818 FILLER_0_27_169
*819 FILLER_0_27_181
*820 FILLER_0_27_193
*821 FILLER_0_27_205
*822 FILLER_0_27_217
*823 FILLER_0_27_223
*824 FILLER_0_27_225
*825 FILLER_0_27_237
*826 FILLER_0_27_249
*827 FILLER_0_27_261
*828 FILLER_0_27_27
*829 FILLER_0_27_273
*830 FILLER_0_27_279
*831 FILLER_0_27_281
*832 FILLER_0_27_293
*833 FILLER_0_27_3
*834 FILLER_0_27_305
*835 FILLER_0_27_317
*836 FILLER_0_27_329
*837 FILLER_0_27_335
*838 FILLER_0_27_337
*839 FILLER_0_27_39
*840 FILLER_0_27_51
*841 FILLER_0_27_55
*842 FILLER_0_27_57
*843 FILLER_0_27_69
*844 FILLER_0_27_81
*845 FILLER_0_27_93
*846 FILLER_0_28_109
*847 FILLER_0_28_121
*848 FILLER_0_28_133
*849 FILLER_0_28_139
*850 FILLER_0_28_141
*851 FILLER_0_28_15
*852 FILLER_0_28_153
*853 FILLER_0_28_165
*854 FILLER_0_28_177
*855 FILLER_0_28_189
*856 FILLER_0_28_195
*857 FILLER_0_28_197
*858 FILLER_0_28_209
*859 FILLER_0_28_221
*860 FILLER_0_28_233
*861 FILLER_0_28_245
*862 FILLER_0_28_251
*863 FILLER_0_28_253
*864 FILLER_0_28_265
*865 FILLER_0_28_27
*866 FILLER_0_28_277
*867 FILLER_0_28_289
*868 FILLER_0_28_29
*869 FILLER_0_28_3
*870 FILLER_0_28_301
*871 FILLER_0_28_307
*872 FILLER_0_28_309
*873 FILLER_0_28_321
*874 FILLER_0_28_333
*875 FILLER_0_28_337
*876 FILLER_0_28_41
*877 FILLER_0_28_53
*878 FILLER_0_28_65
*879 FILLER_0_28_77
*880 FILLER_0_28_83
*881 FILLER_0_28_85
*882 FILLER_0_28_97
*883 FILLER_0_29_105
*884 FILLER_0_29_111
*885 FILLER_0_29_113
*886 FILLER_0_29_125
*887 FILLER_0_29_137
*888 FILLER_0_29_149
*889 FILLER_0_29_15
*890 FILLER_0_29_161
*891 FILLER_0_29_167
*892 FILLER_0_29_169
*893 FILLER_0_29_181
*894 FILLER_0_29_193
*895 FILLER_0_29_205
*896 FILLER_0_29_217
*897 FILLER_0_29_223
*898 FILLER_0_29_225
*899 FILLER_0_29_237
*900 FILLER_0_29_249
*901 FILLER_0_29_261
*902 FILLER_0_29_27
*903 FILLER_0_29_273
*904 FILLER_0_29_279
*905 FILLER_0_29_281
*906 FILLER_0_29_293
*907 FILLER_0_29_3
*908 FILLER_0_29_305
*909 FILLER_0_29_317
*910 FILLER_0_29_329
*911 FILLER_0_29_335
*912 FILLER_0_29_337
*913 FILLER_0_29_39
*914 FILLER_0_29_51
*915 FILLER_0_29_55
*916 FILLER_0_29_57
*917 FILLER_0_29_69
*918 FILLER_0_29_81
*919 FILLER_0_29_93
*920 FILLER_0_2_109
*921 FILLER_0_2_121
*922 FILLER_0_2_133
*923 FILLER_0_2_139
*924 FILLER_0_2_141
*925 FILLER_0_2_15
*926 FILLER_0_2_153
*927 FILLER_0_2_165
*928 FILLER_0_2_177
*929 FILLER_0_2_189
*930 FILLER_0_2_195
*931 FILLER_0_2_197
*932 FILLER_0_2_209
*933 FILLER_0_2_221
*934 FILLER_0_2_233
*935 FILLER_0_2_245
*936 FILLER_0_2_251
*937 FILLER_0_2_253
*938 FILLER_0_2_265
*939 FILLER_0_2_27
*940 FILLER_0_2_277
*941 FILLER_0_2_289
*942 FILLER_0_2_29
*943 FILLER_0_2_3
*944 FILLER_0_2_301
*945 FILLER_0_2_307
*946 FILLER_0_2_309
*947 FILLER_0_2_321
*948 FILLER_0_2_333
*949 FILLER_0_2_337
*950 FILLER_0_2_41
*951 FILLER_0_2_53
*952 FILLER_0_2_65
*953 FILLER_0_2_77
*954 FILLER_0_2_83
*955 FILLER_0_2_85
*956 FILLER_0_2_97
*957 FILLER_0_30_109
*958 FILLER_0_30_121
*959 FILLER_0_30_133
*960 FILLER_0_30_139
*961 FILLER_0_30_141
*962 FILLER_0_30_15
*963 FILLER_0_30_153
*964 FILLER_0_30_165
*965 FILLER_0_30_177
*966 FILLER_0_30_189
*967 FILLER_0_30_195
*968 FILLER_0_30_197
*969 FILLER_0_30_209
*970 FILLER_0_30_221
*971 FILLER_0_30_233
*972 FILLER_0_30_245
*973 FILLER_0_30_251
*974 FILLER_0_30_253
*975 FILLER_0_30_265
*976 FILLER_0_30_27
*977 FILLER_0_30_29
*978 FILLER_0_30_291
*979 FILLER_0_30_3
*980 FILLER_0_30_303
*981 FILLER_0_30_307
*982 FILLER_0_30_309
*983 FILLER_0_30_321
*984 FILLER_0_30_326
*985 FILLER_0_30_333
*986 FILLER_0_30_337
*987 FILLER_0_30_41
*988 FILLER_0_30_53
*989 FILLER_0_30_65
*990 FILLER_0_30_77
*991 FILLER_0_30_83
*992 FILLER_0_30_85
*993 FILLER_0_30_97
*994 FILLER_0_31_105
*995 FILLER_0_31_111
*996 FILLER_0_31_113
*997 FILLER_0_31_125
*998 FILLER_0_31_137
*999 FILLER_0_31_149
*1000 FILLER_0_31_15
*1001 FILLER_0_31_157
*1002 FILLER_0_31_163
*1003 FILLER_0_31_167
*1004 FILLER_0_31_169
*1005 FILLER_0_31_181
*1006 FILLER_0_31_193
*1007 FILLER_0_31_208
*1008 FILLER_0_31_220
*1009 FILLER_0_31_225
*1010 FILLER_0_31_233
*1011 FILLER_0_31_241
*1012 FILLER_0_31_249
*1013 FILLER_0_31_256
*1014 FILLER_0_31_263
*1015 FILLER_0_31_27
*1016 FILLER_0_31_275
*1017 FILLER_0_31_279
*1018 FILLER_0_31_281
*1019 FILLER_0_31_287
*1020 FILLER_0_31_3
*1021 FILLER_0_31_308
*1022 FILLER_0_31_334
*1023 FILLER_0_31_337
*1024 FILLER_0_31_39
*1025 FILLER_0_31_51
*1026 FILLER_0_31_55
*1027 FILLER_0_31_57
*1028 FILLER_0_31_69
*1029 FILLER_0_31_81
*1030 FILLER_0_31_93
*1031 FILLER_0_32_109
*1032 FILLER_0_32_116
*1033 FILLER_0_32_128
*1034 FILLER_0_32_132
*1035 FILLER_0_32_138
*1036 FILLER_0_32_141
*1037 FILLER_0_32_149
*1038 FILLER_0_32_15
*1039 FILLER_0_32_156
*1040 FILLER_0_32_165
*1041 FILLER_0_32_177
*1042 FILLER_0_32_189
*1043 FILLER_0_32_195
*1044 FILLER_0_32_197
*1045 FILLER_0_32_201
*1046 FILLER_0_32_209
*1047 FILLER_0_32_216
*1048 FILLER_0_32_228
*1049 FILLER_0_32_239
*1050 FILLER_0_32_250
*1051 FILLER_0_32_253
*1052 FILLER_0_32_258
*1053 FILLER_0_32_265
*1054 FILLER_0_32_27
*1055 FILLER_0_32_273
*1056 FILLER_0_32_29
*1057 FILLER_0_32_295
*1058 FILLER_0_32_3
*1059 FILLER_0_32_306
*1060 FILLER_0_32_309
*1061 FILLER_0_32_313
*1062 FILLER_0_32_334
*1063 FILLER_0_32_41
*1064 FILLER_0_32_53
*1065 FILLER_0_32_65
*1066 FILLER_0_32_77
*1067 FILLER_0_32_83
*1068 FILLER_0_32_85
*1069 FILLER_0_32_97
*1070 FILLER_0_33_105
*1071 FILLER_0_33_11
*1072 FILLER_0_33_110
*1073 FILLER_0_33_113
*1074 FILLER_0_33_121
*1075 FILLER_0_33_126
*1076 FILLER_0_33_130
*1077 FILLER_0_33_136
*1078 FILLER_0_33_145
*1079 FILLER_0_33_158
*1080 FILLER_0_33_166
*1081 FILLER_0_33_169
*1082 FILLER_0_33_17
*1083 FILLER_0_33_178
*1084 FILLER_0_33_182
*1085 FILLER_0_33_187
*1086 FILLER_0_33_195
*1087 FILLER_0_33_206
*1088 FILLER_0_33_219
*1089 FILLER_0_33_223
*1090 FILLER_0_33_225
*1091 FILLER_0_33_230
*1092 FILLER_0_33_238
*1093 FILLER_0_33_246
*1094 FILLER_0_33_253
*1095 FILLER_0_33_257
*1096 FILLER_0_33_278
*1097 FILLER_0_33_281
*1098 FILLER_0_33_3
*1099 FILLER_0_33_303
*1100 FILLER_0_33_33
*1101 FILLER_0_33_334
*1102 FILLER_0_33_337
*1103 FILLER_0_33_45
*1104 FILLER_0_33_53
*1105 FILLER_0_33_57
*1106 FILLER_0_33_69
*1107 FILLER_0_33_81
*1108 FILLER_0_33_93
*1109 FILLER_0_34_105
*1110 FILLER_0_34_115
*1111 FILLER_0_34_125
*1112 FILLER_0_34_133
*1113 FILLER_0_34_138
*1114 FILLER_0_34_141
*1115 FILLER_0_34_149
*1116 FILLER_0_34_15
*1117 FILLER_0_34_153
*1118 FILLER_0_34_163
*1119 FILLER_0_34_176
*1120 FILLER_0_34_183
*1121 FILLER_0_34_194
*1122 FILLER_0_34_197
*1123 FILLER_0_34_208
*1124 FILLER_0_34_221
*1125 FILLER_0_34_23
*1126 FILLER_0_34_235
*1127 FILLER_0_34_246
*1128 FILLER_0_34_253
*1129 FILLER_0_34_260
*1130 FILLER_0_34_267
*1131 FILLER_0_34_27
*1132 FILLER_0_34_271
*1133 FILLER_0_34_29
*1134 FILLER_0_34_293
*1135 FILLER_0_34_297
*1136 FILLER_0_34_3
*1137 FILLER_0_34_306
*1138 FILLER_0_34_309
*1139 FILLER_0_34_331
*1140 FILLER_0_34_337
*1141 FILLER_0_34_37
*1142 FILLER_0_34_45
*1143 FILLER_0_34_53
*1144 FILLER_0_34_61
*1145 FILLER_0_34_73
*1146 FILLER_0_34_81
*1147 FILLER_0_34_85
*1148 FILLER_0_34_97
*1149 FILLER_0_35_109
*1150 FILLER_0_35_113
*1151 FILLER_0_35_121
*1152 FILLER_0_35_129
*1153 FILLER_0_35_137
*1154 FILLER_0_35_141
*1155 FILLER_0_35_149
*1156 FILLER_0_35_15
*1157 FILLER_0_35_157
*1158 FILLER_0_35_161
*1159 FILLER_0_35_166
*1160 FILLER_0_35_169
*1161 FILLER_0_35_176
*1162 FILLER_0_35_184
*1163 FILLER_0_35_194
*1164 FILLER_0_35_197
*1165 FILLER_0_35_201
*1166 FILLER_0_35_211
*1167 FILLER_0_35_219
*1168 FILLER_0_35_223
*1169 FILLER_0_35_225
*1170 FILLER_0_35_230
*1171 FILLER_0_35_238
*1172 FILLER_0_35_245
*1173 FILLER_0_35_251
*1174 FILLER_0_35_253
*1175 FILLER_0_35_258
*1176 FILLER_0_35_265
*1177 FILLER_0_35_27
*1178 FILLER_0_35_272
*1179 FILLER_0_35_281
*1180 FILLER_0_35_29
*1181 FILLER_0_35_3
*1182 FILLER_0_35_303
*1183 FILLER_0_35_307
*1184 FILLER_0_35_309
*1185 FILLER_0_35_333
*1186 FILLER_0_35_337
*1187 FILLER_0_35_41
*1188 FILLER_0_35_53
*1189 FILLER_0_35_57
*1190 FILLER_0_35_69
*1191 FILLER_0_35_81
*1192 FILLER_0_35_85
*1193 FILLER_0_35_97
*1194 FILLER_0_3_105
*1195 FILLER_0_3_111
*1196 FILLER_0_3_113
*1197 FILLER_0_3_125
*1198 FILLER_0_3_137
*1199 FILLER_0_3_149
*1200 FILLER_0_3_15
*1201 FILLER_0_3_161
*1202 FILLER_0_3_167
*1203 FILLER_0_3_169
*1204 FILLER_0_3_181
*1205 FILLER_0_3_193
*1206 FILLER_0_3_205
*1207 FILLER_0_3_217
*1208 FILLER_0_3_223
*1209 FILLER_0_3_225
*1210 FILLER_0_3_237
*1211 FILLER_0_3_249
*1212 FILLER_0_3_261
*1213 FILLER_0_3_27
*1214 FILLER_0_3_273
*1215 FILLER_0_3_279
*1216 FILLER_0_3_281
*1217 FILLER_0_3_293
*1218 FILLER_0_3_3
*1219 FILLER_0_3_305
*1220 FILLER_0_3_317
*1221 FILLER_0_3_329
*1222 FILLER_0_3_335
*1223 FILLER_0_3_337
*1224 FILLER_0_3_39
*1225 FILLER_0_3_51
*1226 FILLER_0_3_55
*1227 FILLER_0_3_57
*1228 FILLER_0_3_69
*1229 FILLER_0_3_81
*1230 FILLER_0_3_93
*1231 FILLER_0_4_109
*1232 FILLER_0_4_121
*1233 FILLER_0_4_133
*1234 FILLER_0_4_139
*1235 FILLER_0_4_141
*1236 FILLER_0_4_15
*1237 FILLER_0_4_153
*1238 FILLER_0_4_165
*1239 FILLER_0_4_177
*1240 FILLER_0_4_189
*1241 FILLER_0_4_195
*1242 FILLER_0_4_197
*1243 FILLER_0_4_209
*1244 FILLER_0_4_221
*1245 FILLER_0_4_233
*1246 FILLER_0_4_245
*1247 FILLER_0_4_251
*1248 FILLER_0_4_253
*1249 FILLER_0_4_265
*1250 FILLER_0_4_27
*1251 FILLER_0_4_277
*1252 FILLER_0_4_289
*1253 FILLER_0_4_29
*1254 FILLER_0_4_3
*1255 FILLER_0_4_301
*1256 FILLER_0_4_307
*1257 FILLER_0_4_309
*1258 FILLER_0_4_321
*1259 FILLER_0_4_333
*1260 FILLER_0_4_337
*1261 FILLER_0_4_41
*1262 FILLER_0_4_53
*1263 FILLER_0_4_65
*1264 FILLER_0_4_77
*1265 FILLER_0_4_83
*1266 FILLER_0_4_85
*1267 FILLER_0_4_97
*1268 FILLER_0_5_105
*1269 FILLER_0_5_111
*1270 FILLER_0_5_113
*1271 FILLER_0_5_125
*1272 FILLER_0_5_137
*1273 FILLER_0_5_149
*1274 FILLER_0_5_15
*1275 FILLER_0_5_161
*1276 FILLER_0_5_167
*1277 FILLER_0_5_169
*1278 FILLER_0_5_181
*1279 FILLER_0_5_193
*1280 FILLER_0_5_205
*1281 FILLER_0_5_217
*1282 FILLER_0_5_223
*1283 FILLER_0_5_225
*1284 FILLER_0_5_237
*1285 FILLER_0_5_249
*1286 FILLER_0_5_261
*1287 FILLER_0_5_27
*1288 FILLER_0_5_273
*1289 FILLER_0_5_279
*1290 FILLER_0_5_281
*1291 FILLER_0_5_293
*1292 FILLER_0_5_3
*1293 FILLER_0_5_305
*1294 FILLER_0_5_317
*1295 FILLER_0_5_329
*1296 FILLER_0_5_335
*1297 FILLER_0_5_337
*1298 FILLER_0_5_39
*1299 FILLER_0_5_51
*1300 FILLER_0_5_55
*1301 FILLER_0_5_57
*1302 FILLER_0_5_69
*1303 FILLER_0_5_81
*1304 FILLER_0_5_93
*1305 FILLER_0_6_109
*1306 FILLER_0_6_121
*1307 FILLER_0_6_133
*1308 FILLER_0_6_139
*1309 FILLER_0_6_141
*1310 FILLER_0_6_15
*1311 FILLER_0_6_153
*1312 FILLER_0_6_165
*1313 FILLER_0_6_177
*1314 FILLER_0_6_189
*1315 FILLER_0_6_195
*1316 FILLER_0_6_197
*1317 FILLER_0_6_209
*1318 FILLER_0_6_221
*1319 FILLER_0_6_233
*1320 FILLER_0_6_245
*1321 FILLER_0_6_251
*1322 FILLER_0_6_253
*1323 FILLER_0_6_265
*1324 FILLER_0_6_27
*1325 FILLER_0_6_277
*1326 FILLER_0_6_289
*1327 FILLER_0_6_29
*1328 FILLER_0_6_3
*1329 FILLER_0_6_301
*1330 FILLER_0_6_307
*1331 FILLER_0_6_309
*1332 FILLER_0_6_321
*1333 FILLER_0_6_333
*1334 FILLER_0_6_337
*1335 FILLER_0_6_41
*1336 FILLER_0_6_53
*1337 FILLER_0_6_65
*1338 FILLER_0_6_77
*1339 FILLER_0_6_83
*1340 FILLER_0_6_85
*1341 FILLER_0_6_97
*1342 FILLER_0_7_105
*1343 FILLER_0_7_111
*1344 FILLER_0_7_113
*1345 FILLER_0_7_125
*1346 FILLER_0_7_137
*1347 FILLER_0_7_149
*1348 FILLER_0_7_15
*1349 FILLER_0_7_161
*1350 FILLER_0_7_167
*1351 FILLER_0_7_169
*1352 FILLER_0_7_181
*1353 FILLER_0_7_193
*1354 FILLER_0_7_205
*1355 FILLER_0_7_217
*1356 FILLER_0_7_223
*1357 FILLER_0_7_225
*1358 FILLER_0_7_237
*1359 FILLER_0_7_249
*1360 FILLER_0_7_261
*1361 FILLER_0_7_27
*1362 FILLER_0_7_273
*1363 FILLER_0_7_279
*1364 FILLER_0_7_281
*1365 FILLER_0_7_293
*1366 FILLER_0_7_3
*1367 FILLER_0_7_305
*1368 FILLER_0_7_317
*1369 FILLER_0_7_329
*1370 FILLER_0_7_335
*1371 FILLER_0_7_337
*1372 FILLER_0_7_39
*1373 FILLER_0_7_51
*1374 FILLER_0_7_55
*1375 FILLER_0_7_57
*1376 FILLER_0_7_69
*1377 FILLER_0_7_81
*1378 FILLER_0_7_93
*1379 FILLER_0_8_109
*1380 FILLER_0_8_121
*1381 FILLER_0_8_133
*1382 FILLER_0_8_139
*1383 FILLER_0_8_141
*1384 FILLER_0_8_15
*1385 FILLER_0_8_153
*1386 FILLER_0_8_165
*1387 FILLER_0_8_177
*1388 FILLER_0_8_189
*1389 FILLER_0_8_195
*1390 FILLER_0_8_197
*1391 FILLER_0_8_209
*1392 FILLER_0_8_221
*1393 FILLER_0_8_233
*1394 FILLER_0_8_245
*1395 FILLER_0_8_251
*1396 FILLER_0_8_253
*1397 FILLER_0_8_265
*1398 FILLER_0_8_27
*1399 FILLER_0_8_277
*1400 FILLER_0_8_289
*1401 FILLER_0_8_29
*1402 FILLER_0_8_3
*1403 FILLER_0_8_301
*1404 FILLER_0_8_307
*1405 FILLER_0_8_309
*1406 FILLER_0_8_321
*1407 FILLER_0_8_333
*1408 FILLER_0_8_337
*1409 FILLER_0_8_41
*1410 FILLER_0_8_53
*1411 FILLER_0_8_65
*1412 FILLER_0_8_77
*1413 FILLER_0_8_83
*1414 FILLER_0_8_85
*1415 FILLER_0_8_97
*1416 FILLER_0_9_105
*1417 FILLER_0_9_111
*1418 FILLER_0_9_113
*1419 FILLER_0_9_125
*1420 FILLER_0_9_137
*1421 FILLER_0_9_149
*1422 FILLER_0_9_15
*1423 FILLER_0_9_161
*1424 FILLER_0_9_167
*1425 FILLER_0_9_169
*1426 FILLER_0_9_181
*1427 FILLER_0_9_193
*1428 FILLER_0_9_205
*1429 FILLER_0_9_217
*1430 FILLER_0_9_223
*1431 FILLER_0_9_225
*1432 FILLER_0_9_237
*1433 FILLER_0_9_249
*1434 FILLER_0_9_261
*1435 FILLER_0_9_27
*1436 FILLER_0_9_273
*1437 FILLER_0_9_279
*1438 FILLER_0_9_281
*1439 FILLER_0_9_293
*1440 FILLER_0_9_3
*1441 FILLER_0_9_305
*1442 FILLER_0_9_317
*1443 FILLER_0_9_329
*1444 FILLER_0_9_335
*1445 FILLER_0_9_337
*1446 FILLER_0_9_39
*1447 FILLER_0_9_51
*1448 FILLER_0_9_55
*1449 FILLER_0_9_57
*1450 FILLER_0_9_69
*1451 FILLER_0_9_81
*1452 FILLER_0_9_93
*1453 PHY_0
*1454 PHY_1
*1455 PHY_10
*1456 PHY_11
*1457 PHY_12
*1458 PHY_13
*1459 PHY_14
*1460 PHY_15
*1461 PHY_16
*1462 PHY_17
*1463 PHY_18
*1464 PHY_19
*1465 PHY_2
*1466 PHY_20
*1467 PHY_21
*1468 PHY_22
*1469 PHY_23
*1470 PHY_24
*1471 PHY_25
*1472 PHY_26
*1473 PHY_27
*1474 PHY_28
*1475 PHY_29
*1476 PHY_3
*1477 PHY_30
*1478 PHY_31
*1479 PHY_32
*1480 PHY_33
*1481 PHY_34
*1482 PHY_35
*1483 PHY_36
*1484 PHY_37
*1485 PHY_38
*1486 PHY_39
*1487 PHY_4
*1488 PHY_40
*1489 PHY_41
*1490 PHY_42
*1491 PHY_43