*SPEF "ieee 1481-1999"
*DESIGN "tt_um_TrainLED2_top"
*DATE "11:11:11 Fri 11 11, 1111"
*VENDOR "OpenRCX"
*PROGRAM "Parallel Extraction"
*VERSION "1.0"
*DESIGN_FLOW "NAME_SCOPE LOCAL" "PIN_CAP NONE"
*DIVIDER /
*DELIMITER :
*BUS_DELIMITER []
*T_UNIT 1 NS
*C_UNIT 1 PF
*R_UNIT 1 OHM
*L_UNIT 1 HENRY

*NAME_MAP
*1 clk
*2 ena
*3 rst_n
*4 ui_in[0]
*5 ui_in[1]
*6 ui_in[2]
*7 ui_in[3]
*8 ui_in[4]
*9 ui_in[5]
*10 ui_in[6]
*11 ui_in[7]
*12 uio_in[0]
*13 uio_in[1]
*14 uio_in[2]
*15 uio_in[3]
*16 uio_in[4]
*17 uio_in[5]
*18 uio_in[6]
*19 uio_in[7]
*20 net3
*21 net4
*22 net5
*23 net6
*24 net7
*25 net8
*26 net9
*27 net10
*28 net11
*29 net12
*30 net13
*31 net14
*32 net15
*33 net16
*34 net17
*35 net18
*36 uo_out[0]
*37 uo_out[1]
*38 uo_out[2]
*39 uo_out[3]
*40 net19
*41 net20
*42 net21
*43 net22
*46 TrainLED2_top1\.PWM1\.LEDdff
*47 TrainLED2_top1\.PWM1\.PW_in\[0\]
*48 TrainLED2_top1\.PWM1\.PW_in\[1\]
*49 TrainLED2_top1\.PWM1\.PW_in\[2\]
*50 TrainLED2_top1\.PWM1\.PW_in\[3\]
*51 TrainLED2_top1\.PWM1\.PW_in\[4\]
*52 TrainLED2_top1\.PWM1\.PW_in\[5\]
*53 TrainLED2_top1\.PWM1\.PW_in\[6\]
*54 TrainLED2_top1\.PWM1\.PW_in\[7\]
*55 TrainLED2_top1\.PWM1\.counter\[0\]
*56 TrainLED2_top1\.PWM1\.counter\[1\]
*57 TrainLED2_top1\.PWM1\.counter\[2\]
*58 TrainLED2_top1\.PWM1\.counter\[3\]
*59 TrainLED2_top1\.PWM1\.datalatch\[0\]
*60 TrainLED2_top1\.PWM1\.datalatch\[1\]
*61 TrainLED2_top1\.PWM1\.datalatch\[2\]
*62 TrainLED2_top1\.PWM1\.datalatch\[3\]
*63 TrainLED2_top1\.PWM1\.datalatch\[4\]
*64 TrainLED2_top1\.PWM1\.datalatch\[5\]
*65 TrainLED2_top1\.PWM1\.datalatch\[6\]
*66 TrainLED2_top1\.PWM1\.datalatch\[7\]
*67 TrainLED2_top1\.PWM1\.modulator\[0\]
*68 TrainLED2_top1\.PWM1\.modulator\[1\]
*69 TrainLED2_top1\.PWM1\.modulator\[2\]
*70 TrainLED2_top1\.PWM1\.modulator\[3\]
*71 TrainLED2_top1\.PWM2\.LEDdff
*72 TrainLED2_top1\.PWM2\.PW_in\[0\]
*73 TrainLED2_top1\.PWM2\.PW_in\[1\]
*74 TrainLED2_top1\.PWM2\.PW_in\[2\]
*75 TrainLED2_top1\.PWM2\.PW_in\[3\]
*76 TrainLED2_top1\.PWM2\.PW_in\[4\]
*77 TrainLED2_top1\.PWM2\.PW_in\[5\]
*78 TrainLED2_top1\.PWM2\.PW_in\[6\]
*79 TrainLED2_top1\.PWM2\.PW_in\[7\]
*80 TrainLED2_top1\.PWM2\.datalatch\[0\]
*81 TrainLED2_top1\.PWM2\.datalatch\[1\]
*82 TrainLED2_top1\.PWM2\.datalatch\[2\]
*83 TrainLED2_top1\.PWM2\.datalatch\[3\]
*84 TrainLED2_top1\.PWM2\.datalatch\[4\]
*85 TrainLED2_top1\.PWM2\.datalatch\[5\]
*86 TrainLED2_top1\.PWM2\.datalatch\[6\]
*87 TrainLED2_top1\.PWM2\.datalatch\[7\]
*88 TrainLED2_top1\.PWM2\.modulator\[0\]
*89 TrainLED2_top1\.PWM2\.modulator\[1\]
*90 TrainLED2_top1\.PWM2\.modulator\[2\]
*91 TrainLED2_top1\.PWM2\.modulator\[3\]
*92 TrainLED2_top1\.PWM3\.LEDdff
*93 TrainLED2_top1\.PWM3\.PW_in\[0\]
*94 TrainLED2_top1\.PWM3\.PW_in\[1\]
*95 TrainLED2_top1\.PWM3\.PW_in\[2\]
*96 TrainLED2_top1\.PWM3\.PW_in\[3\]
*97 TrainLED2_top1\.PWM3\.PW_in\[4\]
*98 TrainLED2_top1\.PWM3\.PW_in\[5\]
*99 TrainLED2_top1\.PWM3\.PW_in\[6\]
*100 TrainLED2_top1\.PWM3\.PW_in\[7\]
*101 TrainLED2_top1\.PWM3\.datalatch\[0\]
*102 TrainLED2_top1\.PWM3\.datalatch\[1\]
*103 TrainLED2_top1\.PWM3\.datalatch\[2\]
*104 TrainLED2_top1\.PWM3\.datalatch\[3\]
*105 TrainLED2_top1\.PWM3\.datalatch\[4\]
*106 TrainLED2_top1\.PWM3\.datalatch\[5\]
*107 TrainLED2_top1\.PWM3\.datalatch\[6\]
*108 TrainLED2_top1\.PWM3\.datalatch\[7\]
*109 TrainLED2_top1\.PWM3\.modulator\[0\]
*110 TrainLED2_top1\.PWM3\.modulator\[1\]
*111 TrainLED2_top1\.PWM3\.modulator\[2\]
*112 TrainLED2_top1\.PWM3\.modulator\[3\]
*113 TrainLED2_top1\.bitcount\[0\]
*114 TrainLED2_top1\.bitcount\[1\]
*115 TrainLED2_top1\.bitcount\[2\]
*116 TrainLED2_top1\.bitcount\[3\]
*117 TrainLED2_top1\.bitcount\[4\]
*118 TrainLED2_top1\.dout
*119 TrainLED2_top1\.finecount\[0\]
*120 TrainLED2_top1\.finecount\[1\]
*121 TrainLED2_top1\.finecount\[2\]
*122 TrainLED2_top1\.finecount\[3\]
*123 TrainLED2_top1\.mode\[0\]
*124 TrainLED2_top1\.mode\[1\]
*125 TrainLED2_top1\.resetcount\[0\]
*126 TrainLED2_top1\.resetcount\[1\]
*127 TrainLED2_top1\.resetcount\[2\]
*128 TrainLED2_top1\.resetcount\[3\]
*129 TrainLED2_top1\.resetcount\[4\]
*130 TrainLED2_top1\.resetcount\[5\]
*131 TrainLED2_top1\.resetcount\[6\]
*132 TrainLED2_top1\.resetcount\[7\]
*133 _000_
*134 _001_
*135 _002_
*136 _003_
*137 _004_
*138 _005_
*139 _006_
*140 _007_
*141 _008_
*142 _009_
*143 _010_
*144 _011_
*145 _012_
*146 _013_
*147 _014_
*148 _015_
*149 _016_
*150 _017_
*151 _018_
*152 _019_
*153 _020_
*154 _021_
*155 _022_
*156 _023_
*157 _024_
*158 _025_
*159 _026_
*160 _027_
*161 _028_
*162 _029_
*163 _030_
*164 _031_
*165 _032_
*166 _033_
*167 _034_
*168 _035_
*169 _036_
*170 _037_
*171 _038_
*172 _039_
*173 _040_
*174 _041_
*175 _042_
*176 _043_
*177 _044_
*178 _045_
*179 _046_
*180 _047_
*181 _048_
*182 _049_
*183 _050_
*184 _051_
*185 _052_
*186 _053_
*187 _054_
*188 _055_
*189 _056_
*190 _057_
*191 _058_
*192 _059_
*193 _060_
*194 _061_
*195 _062_
*196 _063_
*197 _064_
*198 _065_
*199 _066_
*200 _067_
*201 _068_
*202 _069_
*203 _070_
*204 _071_
*205 _072_
*206 _073_
*207 _074_
*208 _075_
*209 _076_
*210 _077_
*211 _078_
*212 _079_
*213 _080_
*214 _081_
*215 _082_
*216 _083_
*217 _084_
*218 _085_
*219 _086_
*220 _087_
*221 _088_
*222 _089_
*223 _090_
*224 _091_
*225 _092_
*226 _093_
*227 _094_
*228 _095_
*229 _096_
*230 _097_
*231 _098_
*232 _099_
*233 _100_
*234 _101_
*235 _102_
*236 _103_
*237 _104_
*238 _105_
*239 _106_
*240 _107_
*241 _108_
*242 _109_
*243 _110_
*244 _111_
*245 _112_
*246 _113_
*247 _114_
*248 _115_
*249 _116_
*250 _117_
*251 _118_
*252 _119_
*253 _120_
*254 _121_
*255 _122_
*256 _123_
*257 _124_
*258 _125_
*259 _126_
*260 _127_
*261 _128_
*262 _129_
*263 _130_
*264 _131_
*265 _132_
*266 _133_
*267 _134_
*268 _135_
*269 _136_
*270 _137_
*271 _138_
*272 _139_
*273 _140_
*274 _141_
*275 _142_
*276 _143_
*277 _144_
*278 _145_
*279 _146_
*280 _147_
*281 _148_
*282 _149_
*283 _150_
*284 _151_
*285 _152_
*286 _153_
*287 _154_
*288 _155_
*289 _156_
*290 _157_
*291 _158_
*292 _159_
*293 _160_
*294 _161_
*295 _162_
*296 _163_
*297 _164_
*298 _165_
*299 _166_
*300 _167_
*301 _168_
*302 _169_
*303 _170_
*304 _171_
*305 _172_
*306 _173_
*307 _174_
*308 _175_
*309 _176_
*310 _177_
*311 _178_
*312 _179_
*313 _180_
*314 _181_
*315 _182_
*316 _183_
*317 _184_
*318 _185_
*319 _186_
*320 _187_
*321 _188_
*322 _189_
*323 _190_
*324 _191_
*325 _192_
*326 _193_
*327 _194_
*328 _195_
*329 _196_
*330 _197_
*331 _198_
*332 _199_
*333 _200_
*334 _201_
*335 _202_
*336 _203_
*337 _204_
*338 _205_
*339 _206_
*340 _207_
*341 _208_
*342 _209_
*343 _210_
*344 _211_
*345 _212_
*346 _213_
*347 _214_
*348 _215_
*349 _216_
*350 _217_
*351 _218_
*352 _219_
*353 _220_
*354 _221_
*355 _222_
*356 _223_
*357 _224_
*358 _225_
*359 _226_
*360 _227_
*361 _228_
*362 _229_
*363 _230_
*364 _231_
*365 _232_
*366 _233_
*367 _234_
*368 _235_
*369 _236_
*370 _237_
*371 _238_
*372 _239_
*373 _240_
*374 _241_
*375 _242_
*376 _243_
*377 _244_
*378 _245_
*379 _246_
*380 _247_
*381 _248_
*382 _249_
*383 _250_
*384 _251_
*385 _252_
*386 _253_
*387 _254_
*388 _255_
*389 _256_
*390 _257_
*391 _258_
*392 _259_
*393 _260_
*394 _261_
*395 _262_
*396 _263_
*397 _264_
*398 _265_
*399 _266_
*400 _267_
*401 _268_
*402 _269_
*403 _270_
*404 _271_
*405 _272_
*406 _273_
*407 _274_
*408 _275_
*409 _276_
*410 _277_
*411 _278_
*412 _279_
*413 _280_
*414 _281_
*415 _282_
*416 _283_
*417 _284_
*418 _285_
*419 _286_
*420 _287_
*421 _288_
*422 _289_
*423 _290_
*424 _291_
*425 _292_
*426 _293_
*427 _294_
*428 _295_
*429 _296_
*430 _297_
*431 _298_
*432 _299_
*433 _300_
*434 _301_
*435 _302_
*436 _303_
*437 _304_
*438 _305_
*439 _306_
*440 _307_
*441 _308_
*442 _309_
*443 _310_
*444 _311_
*445 _312_
*446 _313_
*447 _314_
*448 _315_
*449 _316_
*450 _317_
*451 _318_
*452 clknet_0_clk
*453 clknet_3_0__leaf_clk
*454 clknet_3_1__leaf_clk
*455 clknet_3_2__leaf_clk
*456 clknet_3_3__leaf_clk
*457 clknet_3_4__leaf_clk
*458 clknet_3_5__leaf_clk
*459 clknet_3_6__leaf_clk
*460 clknet_3_7__leaf_clk
*461 net1
*462 net2
*463 ANTENNA_1
*464 ANTENNA_2
*465 FILLER_0_109
*466 FILLER_0_113
*467 FILLER_0_125
*468 FILLER_0_137
*469 FILLER_0_141
*470 FILLER_0_15
*471 FILLER_0_153
*472 FILLER_0_165
*473 FILLER_0_169
*474 FILLER_0_181
*475 FILLER_0_193
*476 FILLER_0_197
*477 FILLER_0_209
*478 FILLER_0_221
*479 FILLER_0_225
*480 FILLER_0_237
*481 FILLER_0_249
*482 FILLER_0_253
*483 FILLER_0_265
*484 FILLER_0_27
*485 FILLER_0_277
*486 FILLER_0_281
*487 FILLER_0_29
*488 FILLER_0_293
*489 FILLER_0_3
*490 FILLER_0_305
*491 FILLER_0_309
*492 FILLER_0_321
*493 FILLER_0_333
*494 FILLER_0_337
*495 FILLER_0_41
*496 FILLER_0_53
*497 FILLER_0_57
*498 FILLER_0_69
*499 FILLER_0_81
*500 FILLER_0_85
*501 FILLER_0_97
*502 FILLER_10_109
*503 FILLER_10_121
*504 FILLER_10_133
*505 FILLER_10_139
*506 FILLER_10_141
*507 FILLER_10_148
*508 FILLER_10_15
*509 FILLER_10_161
*510 FILLER_10_171
*511 FILLER_10_181
*512 FILLER_10_189
*513 FILLER_10_195
*514 FILLER_10_197
*515 FILLER_10_203
*516 FILLER_10_210
*517 FILLER_10_221
*518 FILLER_10_233
*519 FILLER_10_245
*520 FILLER_10_251
*521 FILLER_10_253
*522 FILLER_10_265
*523 FILLER_10_27
*524 FILLER_10_277
*525 FILLER_10_289
*526 FILLER_10_29
*527 FILLER_10_3
*528 FILLER_10_301
*529 FILLER_10_307
*530 FILLER_10_309
*531 FILLER_10_321
*532 FILLER_10_333
*533 FILLER_10_337
*534 FILLER_10_41
*535 FILLER_10_53
*536 FILLER_10_65
*537 FILLER_10_77
*538 FILLER_10_83
*539 FILLER_10_85
*540 FILLER_10_97
*541 FILLER_11_105
*542 FILLER_11_111
*543 FILLER_11_113
*544 FILLER_11_125
*545 FILLER_11_132
*546 FILLER_11_141
*547 FILLER_11_145
*548 FILLER_11_15
*549 FILLER_11_153
*550 FILLER_11_165
*551 FILLER_11_169
*552 FILLER_11_180
*553 FILLER_11_187
*554 FILLER_11_195
*555 FILLER_11_200
*556 FILLER_11_213
*557 FILLER_11_220
*558 FILLER_11_225
*559 FILLER_11_230
*560 FILLER_11_238
*561 FILLER_11_245
*562 FILLER_11_257
*563 FILLER_11_268
*564 FILLER_11_27
*565 FILLER_11_272
*566 FILLER_11_276
*567 FILLER_11_281
*568 FILLER_11_291
*569 FILLER_11_3
*570 FILLER_11_303
*571 FILLER_11_315
*572 FILLER_11_327
*573 FILLER_11_335
*574 FILLER_11_337
*575 FILLER_11_39
*576 FILLER_11_51
*577 FILLER_11_55
*578 FILLER_11_57
*579 FILLER_11_69
*580 FILLER_11_81
*581 FILLER_11_93
*582 FILLER_12_109
*583 FILLER_12_121
*584 FILLER_12_135
*585 FILLER_12_139
*586 FILLER_12_141
*587 FILLER_12_15
*588 FILLER_12_150
*589 FILLER_12_163
*590 FILLER_12_175
*591 FILLER_12_182
*592 FILLER_12_194
*593 FILLER_12_197
*594 FILLER_12_212
*595 FILLER_12_224
*596 FILLER_12_235
*597 FILLER_12_241
*598 FILLER_12_250
*599 FILLER_12_253
*600 FILLER_12_267
*601 FILLER_12_27
*602 FILLER_12_287
*603 FILLER_12_29
*604 FILLER_12_3
*605 FILLER_12_301
*606 FILLER_12_307
*607 FILLER_12_309
*608 FILLER_12_333
*609 FILLER_12_337
*610 FILLER_12_41
*611 FILLER_12_53
*612 FILLER_12_65
*613 FILLER_12_77
*614 FILLER_12_83
*615 FILLER_12_85
*616 FILLER_12_97
*617 FILLER_13_108
*618 FILLER_13_113
*619 FILLER_13_124
*620 FILLER_13_136
*621 FILLER_13_142
*622 FILLER_13_15
*623 FILLER_13_152
*624 FILLER_13_160
*625 FILLER_13_164
*626 FILLER_13_169
*627 FILLER_13_181
*628 FILLER_13_188
*629 FILLER_13_194
*630 FILLER_13_204
*631 FILLER_13_216
*632 FILLER_13_225
*633 FILLER_13_235
*634 FILLER_13_244
*635 FILLER_13_256
*636 FILLER_13_268
*637 FILLER_13_27
*638 FILLER_13_278
*639 FILLER_13_281
*640 FILLER_13_291
*641 FILLER_13_3
*642 FILLER_13_303
*643 FILLER_13_315
*644 FILLER_13_332
*645 FILLER_13_337
*646 FILLER_13_39
*647 FILLER_13_51
*648 FILLER_13_55
*649 FILLER_13_57
*650 FILLER_13_69
*651 FILLER_13_81
*652 FILLER_13_93
*653 FILLER_14_102
*654 FILLER_14_111
*655 FILLER_14_122
*656 FILLER_14_131
*657 FILLER_14_138
*658 FILLER_14_141
*659 FILLER_14_15
*660 FILLER_14_156
*661 FILLER_14_163
*662 FILLER_14_175
*663 FILLER_14_188
*664 FILLER_14_197
*665 FILLER_14_215
*666 FILLER_14_224
*667 FILLER_14_233
*668 FILLER_14_241
*669 FILLER_14_250
*670 FILLER_14_253
*671 FILLER_14_27
*672 FILLER_14_277
*673 FILLER_14_29
*674 FILLER_14_299
*675 FILLER_14_3
*676 FILLER_14_307
*677 FILLER_14_309
*678 FILLER_14_315
*679 FILLER_14_332
*680 FILLER_14_41
*681 FILLER_14_53
*682 FILLER_14_65
*683 FILLER_14_77
*684 FILLER_14_83
*685 FILLER_14_85
*686 FILLER_14_97
*687 FILLER_15_105
*688 FILLER_15_111
*689 FILLER_15_113
*690 FILLER_15_122
*691 FILLER_15_134
*692 FILLER_15_147
*693 FILLER_15_15
*694 FILLER_15_154
*695 FILLER_15_166
*696 FILLER_15_169
*697 FILLER_15_181
*698 FILLER_15_200
*699 FILLER_15_220
*700 FILLER_15_225
*701 FILLER_15_243
*702 FILLER_15_27
*703 FILLER_15_271
*704 FILLER_15_279
*705 FILLER_15_281
*706 FILLER_15_299
*707 FILLER_15_3
*708 FILLER_15_319
*709 FILLER_15_331
*710 FILLER_15_335
*711 FILLER_15_337
*712 FILLER_15_39
*713 FILLER_15_51
*714 FILLER_15_55
*715 FILLER_15_57
*716 FILLER_15_69
*717 FILLER_15_81
*718 FILLER_15_93
*719 FILLER_16_109
*720 FILLER_16_123
*721 FILLER_16_135
*722 FILLER_16_139
*723 FILLER_16_141
*724 FILLER_16_147
*725 FILLER_16_15
*726 FILLER_16_154
*727 FILLER_16_166
*728 FILLER_16_194
*729 FILLER_16_197
*730 FILLER_16_204
*731 FILLER_16_212
*732 FILLER_16_234
*733 FILLER_16_242
*734 FILLER_16_250
*735 FILLER_16_253
*736 FILLER_16_260
*737 FILLER_16_267
*738 FILLER_16_27
*739 FILLER_16_29
*740 FILLER_16_291
*741 FILLER_16_3
*742 FILLER_16_303
*743 FILLER_16_307
*744 FILLER_16_309
*745 FILLER_16_327
*746 FILLER_16_335
*747 FILLER_16_41
*748 FILLER_16_53
*749 FILLER_16_65
*750 FILLER_16_77
*751 FILLER_16_83
*752 FILLER_16_85
*753 FILLER_16_97
*754 FILLER_17_106
*755 FILLER_17_113
*756 FILLER_17_129
*757 FILLER_17_138
*758 FILLER_17_147
*759 FILLER_17_15
*760 FILLER_17_156
*761 FILLER_17_169
*762 FILLER_17_181
*763 FILLER_17_185
*764 FILLER_17_206
*765 FILLER_17_218
*766 FILLER_17_225
*767 FILLER_17_233
*768 FILLER_17_250
*769 FILLER_17_27
*770 FILLER_17_270
*771 FILLER_17_278
*772 FILLER_17_281
*773 FILLER_17_293
*774 FILLER_17_3
*775 FILLER_17_319
*776 FILLER_17_331
*777 FILLER_17_335
*778 FILLER_17_337
*779 FILLER_17_39
*780 FILLER_17_51
*781 FILLER_17_55
*782 FILLER_17_57
*783 FILLER_17_69
*784 FILLER_17_81
*785 FILLER_17_93
*786 FILLER_17_97
*787 FILLER_18_103
*788 FILLER_18_112
*789 FILLER_18_116
*790 FILLER_18_122
*791 FILLER_18_128
*792 FILLER_18_134
*793 FILLER_18_141
*794 FILLER_18_145
*795 FILLER_18_15
*796 FILLER_18_155
*797 FILLER_18_167
*798 FILLER_18_175
*799 FILLER_18_194
*800 FILLER_18_197
*801 FILLER_18_215
*802 FILLER_18_227
*803 FILLER_18_239
*804 FILLER_18_251
*805 FILLER_18_253
*806 FILLER_18_265
*807 FILLER_18_27
*808 FILLER_18_287
*809 FILLER_18_29
*810 FILLER_18_299
*811 FILLER_18_3
*812 FILLER_18_307
*813 FILLER_18_309
*814 FILLER_18_327
*815 FILLER_18_335
*816 FILLER_18_41
*817 FILLER_18_53
*818 FILLER_18_65
*819 FILLER_18_77
*820 FILLER_18_83
*821 FILLER_18_85
*822 FILLER_18_97
*823 FILLER_19_105
*824 FILLER_19_110
*825 FILLER_19_113
*826 FILLER_19_123
*827 FILLER_19_127
*828 FILLER_19_131
*829 FILLER_19_141
*830 FILLER_19_15
*831 FILLER_19_154
*832 FILLER_19_164
*833 FILLER_19_169
*834 FILLER_19_181
*835 FILLER_19_201
*836 FILLER_19_221
*837 FILLER_19_225
*838 FILLER_19_233
*839 FILLER_19_252
*840 FILLER_19_260
*841 FILLER_19_27
*842 FILLER_19_278
*843 FILLER_19_281
*844 FILLER_19_299
*845 FILLER_19_3
*846 FILLER_19_319
*847 FILLER_19_331
*848 FILLER_19_335
*849 FILLER_19_337
*850 FILLER_19_39
*851 FILLER_19_51
*852 FILLER_19_55
*853 FILLER_19_57
*854 FILLER_19_65
*855 FILLER_19_75
*856 FILLER_19_87
*857 FILLER_19_99
*858 FILLER_1_105
*859 FILLER_1_111
*860 FILLER_1_113
*861 FILLER_1_125
*862 FILLER_1_137
*863 FILLER_1_149
*864 FILLER_1_15
*865 FILLER_1_161
*866 FILLER_1_167
*867 FILLER_1_169
*868 FILLER_1_181
*869 FILLER_1_193
*870 FILLER_1_205
*871 FILLER_1_217
*872 FILLER_1_223
*873 FILLER_1_225
*874 FILLER_1_237
*875 FILLER_1_249
*876 FILLER_1_261
*877 FILLER_1_27
*878 FILLER_1_273
*879 FILLER_1_279
*880 FILLER_1_281
*881 FILLER_1_293
*882 FILLER_1_3
*883 FILLER_1_305
*884 FILLER_1_317
*885 FILLER_1_329
*886 FILLER_1_335
*887 FILLER_1_337
*888 FILLER_1_39
*889 FILLER_1_51
*890 FILLER_1_55
*891 FILLER_1_57
*892 FILLER_1_69
*893 FILLER_1_81
*894 FILLER_1_93
*895 FILLER_20_102
*896 FILLER_20_109
*897 FILLER_20_117
*898 FILLER_20_126
*899 FILLER_20_138
*900 FILLER_20_141
*901 FILLER_20_146
*902 FILLER_20_152
*903 FILLER_20_16
*904 FILLER_20_162
*905 FILLER_20_174
*906 FILLER_20_186
*907 FILLER_20_194
*908 FILLER_20_197
*909 FILLER_20_201
*910 FILLER_20_205
*911 FILLER_20_213
*912 FILLER_20_232
*913 FILLER_20_244
*914 FILLER_20_253
*915 FILLER_20_265
*916 FILLER_20_283
*917 FILLER_20_287
*918 FILLER_20_29
*919 FILLER_20_3
*920 FILLER_20_304
*921 FILLER_20_309
*922 FILLER_20_327
*923 FILLER_20_335
*924 FILLER_20_41
*925 FILLER_20_50
*926 FILLER_20_62
*927 FILLER_20_70
*928 FILLER_20_74
*929 FILLER_20_82
*930 FILLER_20_85
*931 FILLER_20_89
*932 FILLER_20_94
*933 FILLER_21_103
*934 FILLER_21_109
*935 FILLER_21_113
*936 FILLER_21_120
*937 FILLER_21_132
*938 FILLER_21_140
*939 FILLER_21_15
*940 FILLER_21_152
*941 FILLER_21_157
*942 FILLER_21_165
*943 FILLER_21_169
*944 FILLER_21_181
*945 FILLER_21_198
*946 FILLER_21_210
*947 FILLER_21_222
*948 FILLER_21_225
*949 FILLER_21_243
*950 FILLER_21_255
*951 FILLER_21_267
*952 FILLER_21_27
*953 FILLER_21_278
*954 FILLER_21_281
*955 FILLER_21_299
*956 FILLER_21_3
*957 FILLER_21_319
*958 FILLER_21_331
*959 FILLER_21_335
*960 FILLER_21_337
*961 FILLER_21_39
*962 FILLER_21_51
*963 FILLER_21_55
*964 FILLER_21_57
*965 FILLER_21_62
*966 FILLER_21_70
*967 FILLER_21_75
*968 FILLER_21_86
*969 FILLER_21_95
*970 FILLER_22_109
*971 FILLER_22_113
*972 FILLER_22_119
*973 FILLER_22_127
*974 FILLER_22_136
*975 FILLER_22_141
*976 FILLER_22_15
*977 FILLER_22_158
*978 FILLER_22_165
*979 FILLER_22_177
*980 FILLER_22_194
*981 FILLER_22_197
*982 FILLER_22_208
*983 FILLER_22_215
*984 FILLER_22_230
*985 FILLER_22_242
*986 FILLER_22_250
*987 FILLER_22_253
*988 FILLER_22_263
*989 FILLER_22_27
*990 FILLER_22_285
*991 FILLER_22_29
*992 FILLER_22_3
*993 FILLER_22_305
*994 FILLER_22_309
*995 FILLER_22_327
*996 FILLER_22_335
*997 FILLER_22_41
*998 FILLER_22_49
*999 FILLER_22_57
*1000 FILLER_22_66
*1001 FILLER_22_78
*1002 FILLER_22_85
*1003 FILLER_22_97
*1004 FILLER_23_100
*1005 FILLER_23_108
*1006 FILLER_23_113
*1007 FILLER_23_122
*1008 FILLER_23_134
*1009 FILLER_23_146
*1010 FILLER_23_154
*1011 FILLER_23_16
*1012 FILLER_23_165
*1013 FILLER_23_169
*1014 FILLER_23_181
*1015 FILLER_23_198
*1016 FILLER_23_211
*1017 FILLER_23_22
*1018 FILLER_23_223
*1019 FILLER_23_225
*1020 FILLER_23_235
*1021 FILLER_23_247
*1022 FILLER_23_258
*1023 FILLER_23_278
*1024 FILLER_23_28
*1025 FILLER_23_281
*1026 FILLER_23_3
*1027 FILLER_23_303
*1028 FILLER_23_310
*1029 FILLER_23_322
*1030 FILLER_23_334
*1031 FILLER_23_337
*1032 FILLER_23_40
*1033 FILLER_23_49
*1034 FILLER_23_55
*1035 FILLER_23_57
*1036 FILLER_23_66
*1037 FILLER_23_79
*1038 FILLER_23_91
*1039 FILLER_24_103
*1040 FILLER_24_115
*1041 FILLER_24_123
*1042 FILLER_24_129
*1043 FILLER_24_138
*1044 FILLER_24_141
*1045 FILLER_24_149
*1046 FILLER_24_15
*1047 FILLER_24_160
*1048 FILLER_24_172
*1049 FILLER_24_194
*1050 FILLER_24_197
*1051 FILLER_24_208
*1052 FILLER_24_21
*1053 FILLER_24_220
*1054 FILLER_24_224
*1055 FILLER_24_234
*1056 FILLER_24_246
*1057 FILLER_24_253
*1058 FILLER_24_26
*1059 FILLER_24_271
*1060 FILLER_24_29
*1061 FILLER_24_291
*1062 FILLER_24_3
*1063 FILLER_24_304
*1064 FILLER_24_309
*1065 FILLER_24_333
*1066 FILLER_24_337
*1067 FILLER_24_41
*1068 FILLER_24_49
*1069 FILLER_24_53
*1070 FILLER_24_62
*1071 FILLER_24_70
*1072 FILLER_24_74
*1073 FILLER_24_82
*1074 FILLER_24_85
*1075 FILLER_24_91
*1076 FILLER_25_103
*1077 FILLER_25_109
*1078 FILLER_25_113
*1079 FILLER_25_120
*1080 FILLER_25_140
*1081 FILLER_25_152
*1082 FILLER_25_160
*1083 FILLER_25_166
*1084 FILLER_25_169
*1085 FILLER_25_17
*1086 FILLER_25_182
*1087 FILLER_25_205
*1088 FILLER_25_212
*1089 FILLER_25_219
*1090 FILLER_25_223
*1091 FILLER_25_225
*1092 FILLER_25_230
*1093 FILLER_25_242
*1094 FILLER_25_25
*1095 FILLER_25_254
*1096 FILLER_25_276
*1097 FILLER_25_281
*1098 FILLER_25_299
*1099 FILLER_25_3
*1100 FILLER_25_319
*1101 FILLER_25_32
*1102 FILLER_25_331
*1103 FILLER_25_335
*1104 FILLER_25_337
*1105 FILLER_25_39
*1106 FILLER_25_47
*1107 FILLER_25_54
*1108 FILLER_25_57
*1109 FILLER_25_71
*1110 FILLER_25_79
*1111 FILLER_25_9
*1112 FILLER_25_91
*1113 FILLER_26_11
*1114 FILLER_26_114
*1115 FILLER_26_123
*1116 FILLER_26_131
*1117 FILLER_26_137
*1118 FILLER_26_141
*1119 FILLER_26_147
*1120 FILLER_26_157
*1121 FILLER_26_164
*1122 FILLER_26_176
*1123 FILLER_26_194
*1124 FILLER_26_197
*1125 FILLER_26_204
*1126 FILLER_26_21
*1127 FILLER_26_224
*1128 FILLER_26_236
*1129 FILLER_26_248
*1130 FILLER_26_253
*1131 FILLER_26_262
*1132 FILLER_26_27
*1133 FILLER_26_270
*1134 FILLER_26_29
*1135 FILLER_26_291
*1136 FILLER_26_297
*1137 FILLER_26_3
*1138 FILLER_26_303
*1139 FILLER_26_307
*1140 FILLER_26_309
*1141 FILLER_26_327
*1142 FILLER_26_336
*1143 FILLER_26_38
*1144 FILLER_26_45
*1145 FILLER_26_53
*1146 FILLER_26_59
*1147 FILLER_26_68
*1148 FILLER_26_76
*1149 FILLER_26_82
*1150 FILLER_26_85
*1151 FILLER_26_97
*1152 FILLER_27_102
*1153 FILLER_27_110
*1154 FILLER_27_113
*1155 FILLER_27_121
*1156 FILLER_27_137
*1157 FILLER_27_149
*1158 FILLER_27_159
*1159 FILLER_27_166
*1160 FILLER_27_169
*1161 FILLER_27_17
*1162 FILLER_27_175
*1163 FILLER_27_182
*1164 FILLER_27_206
*1165 FILLER_27_213
*1166 FILLER_27_221
*1167 FILLER_27_225
*1168 FILLER_27_230
*1169 FILLER_27_242
*1170 FILLER_27_26
*1171 FILLER_27_262
*1172 FILLER_27_271
*1173 FILLER_27_278
*1174 FILLER_27_281
*1175 FILLER_27_287
*1176 FILLER_27_3
*1177 FILLER_27_319
*1178 FILLER_27_330
*1179 FILLER_27_337
*1180 FILLER_27_37
*1181 FILLER_27_45
*1182 FILLER_27_54
*1183 FILLER_27_57
*1184 FILLER_27_70
*1185 FILLER_27_79
*1186 FILLER_27_87
*1187 FILLER_27_9
*1188 FILLER_27_94
*1189 FILLER_28_105
*1190 FILLER_28_117
*1191 FILLER_28_126
*1192 FILLER_28_138
*1193 FILLER_28_141
*1194 FILLER_28_145
*1195 FILLER_28_15
*1196 FILLER_28_155
*1197 FILLER_28_167
*1198 FILLER_28_175
*1199 FILLER_28_194
*1200 FILLER_28_197
*1201 FILLER_28_203
*1202 FILLER_28_21
*1203 FILLER_28_215
*1204 FILLER_28_221
*1205 FILLER_28_238
*1206 FILLER_28_250
*1207 FILLER_28_253
*1208 FILLER_28_261
*1209 FILLER_28_27
*1210 FILLER_28_279
*1211 FILLER_28_29
*1212 FILLER_28_299
*1213 FILLER_28_3
*1214 FILLER_28_307
*1215 FILLER_28_309
*1216 FILLER_28_327
*1217 FILLER_28_334
*1218 FILLER_28_36
*1219 FILLER_28_48
*1220 FILLER_28_54
*1221 FILLER_28_63
*1222 FILLER_28_75
*1223 FILLER_28_82
*1224 FILLER_28_85
*1225 FILLER_28_94
*1226 FILLER_28_98
*1227 FILLER_29_108
*1228 FILLER_29_113
*1229 FILLER_29_123
*1230 FILLER_29_132
*1231 FILLER_29_136
*1232 FILLER_29_145
*1233 FILLER_29_15
*1234 FILLER_29_153
*1235 FILLER_29_165
*1236 FILLER_29_169
*1237 FILLER_29_181
*1238 FILLER_29_202
*1239 FILLER_29_222
*1240 FILLER_29_225
*1241 FILLER_29_236
*1242 FILLER_29_260
*1243 FILLER_29_27
*1244 FILLER_29_271
*1245 FILLER_29_278
*1246 FILLER_29_281
*1247 FILLER_29_299
*1248 FILLER_29_3
*1249 FILLER_29_305
*1250 FILLER_29_313
*1251 FILLER_29_333
*1252 FILLER_29_337
*1253 FILLER_29_39
*1254 FILLER_29_51
*1255 FILLER_29_55
*1256 FILLER_29_57
*1257 FILLER_29_75
*1258 FILLER_29_84
*1259 FILLER_29_90
*1260 FILLER_29_94
*1261 FILLER_2_109
*1262 FILLER_2_121
*1263 FILLER_2_133
*1264 FILLER_2_139
*1265 FILLER_2_141
*1266 FILLER_2_15
*1267 FILLER_2_153
*1268 FILLER_2_165
*1269 FILLER_2_177
*1270 FILLER_2_189
*1271 FILLER_2_195
*1272 FILLER_2_197
*1273 FILLER_2_209
*1274 FILLER_2_221
*1275 FILLER_2_233
*1276 FILLER_2_245
*1277 FILLER_2_251
*1278 FILLER_2_253
*1279 FILLER_2_265
*1280 FILLER_2_27
*1281 FILLER_2_277
*1282 FILLER_2_289
*1283 FILLER_2_29
*1284 FILLER_2_3
*1285 FILLER_2_301
*1286 FILLER_2_307
*1287 FILLER_2_309
*1288 FILLER_2_321
*1289 FILLER_2_333
*1290 FILLER_2_337
*1291 FILLER_2_41
*1292 FILLER_2_53
*1293 FILLER_2_65
*1294 FILLER_2_77
*1295 FILLER_2_83
*1296 FILLER_2_85
*1297 FILLER_2_97
*1298 FILLER_30_105
*1299 FILLER_30_109
*1300 FILLER_30_121
*1301 FILLER_30_125
*1302 FILLER_30_129
*1303 FILLER_30_138
*1304 FILLER_30_141
*1305 FILLER_30_15
*1306 FILLER_30_150
*1307 FILLER_30_154
*1308 FILLER_30_160
*1309 FILLER_30_172
*1310 FILLER_30_184
*1311 FILLER_30_197
*1312 FILLER_30_209
*1313 FILLER_30_21
*1314 FILLER_30_213
*1315 FILLER_30_234
*1316 FILLER_30_250
*1317 FILLER_30_253
*1318 FILLER_30_27
*1319 FILLER_30_272
*1320 FILLER_30_281
*1321 FILLER_30_285
*1322 FILLER_30_29
*1323 FILLER_30_3
*1324 FILLER_30_302
*1325 FILLER_30_309
*1326 FILLER_30_318
*1327 FILLER_30_328
*1328 FILLER_30_335
*1329 FILLER_30_41
*1330 FILLER_30_53
*1331 FILLER_30_65
*1332 FILLER_30_77
*1333 FILLER_30_81
*1334 FILLER_30_85
*1335 FILLER_30_93
*1336 FILLER_31_100
*1337 FILLER_31_106
*1338 FILLER_31_110
*1339 FILLER_31_113
*1340 FILLER_31_118
*1341 FILLER_31_130
*1342 FILLER_31_142
*1343 FILLER_31_148
*1344 FILLER_31_15
*1345 FILLER_31_160
*1346 FILLER_31_169
*1347 FILLER_31_181
*1348 FILLER_31_193
*1349 FILLER_31_215
*1350 FILLER_31_222
*1351 FILLER_31_225
*1352 FILLER_31_243
*1353 FILLER_31_263
*1354 FILLER_31_27
*1355 FILLER_31_275
*1356 FILLER_31_279
*1357 FILLER_31_281
*1358 FILLER_31_287
*1359 FILLER_31_295
*1360 FILLER_31_3
*1361 FILLER_31_314
*1362 FILLER_31_334
*1363 FILLER_31_337
*1364 FILLER_31_39
*1365 FILLER_31_51
*1366 FILLER_31_55
*1367 FILLER_31_57
*1368 FILLER_31_64
*1369 FILLER_31_76
*1370 FILLER_31_82
*1371 FILLER_31_91
*1372 FILLER_32_101
*1373 FILLER_32_11
*1374 FILLER_32_112
*1375 FILLER_32_119
*1376 FILLER_32_126
*1377 FILLER_32_133
*1378 FILLER_32_139
*1379 FILLER_32_141
*1380 FILLER_32_153
*1381 FILLER_32_165
*1382 FILLER_32_177
*1383 FILLER_32_186
*1384 FILLER_32_194
*1385 FILLER_32_197
*1386 FILLER_32_21
*1387 FILLER_32_215
*1388 FILLER_32_235
*1389 FILLER_32_243
*1390 FILLER_32_249
*1391 FILLER_32_253
*1392 FILLER_32_260
*1393 FILLER_32_266
*1394 FILLER_32_27
*1395 FILLER_32_273
*1396 FILLER_32_282
*1397 FILLER_32_288
*1398 FILLER_32_29
*1399 FILLER_32_3
*1400 FILLER_32_306
*1401 FILLER_32_309
*1402 FILLER_32_329
*1403 FILLER_32_336
*1404 FILLER_32_41
*1405 FILLER_32_53
*1406 FILLER_32_65
*1407 FILLER_32_77
*1408 FILLER_32_83
*1409 FILLER_32_85
*1410 FILLER_33_101
*1411 FILLER_33_110
*1412 FILLER_33_113
*1413 FILLER_33_123
*1414 FILLER_33_137
*1415 FILLER_33_144
*1416 FILLER_33_15
*1417 FILLER_33_157
*1418 FILLER_33_164
*1419 FILLER_33_169
*1420 FILLER_33_181
*1421 FILLER_33_201
*1422 FILLER_33_222
*1423 FILLER_33_225
*1424 FILLER_33_243
*1425 FILLER_33_251
*1426 FILLER_33_259
*1427 FILLER_33_27
*1428 FILLER_33_271
*1429 FILLER_33_279
*1430 FILLER_33_281
*1431 FILLER_33_293
*1432 FILLER_33_298
*1433 FILLER_33_3
*1434 FILLER_33_317
*1435 FILLER_33_325
*1436 FILLER_33_333
*1437 FILLER_33_337
*1438 FILLER_33_39
*1439 FILLER_33_51
*1440 FILLER_33_55
*1441 FILLER_33_57
*1442 FILLER_33_72
*1443 FILLER_33_76
*1444 FILLER_33_80
*1445 FILLER_33_88
*1446 FILLER_33_92
*1447 FILLER_34_106
*1448 FILLER_34_116
*1449 FILLER_34_125
*1450 FILLER_34_137
*1451 FILLER_34_141
*1452 FILLER_34_148
*1453 FILLER_34_156
*1454 FILLER_34_165
*1455 FILLER_34_177
*1456 FILLER_34_189
*1457 FILLER_34_195
*1458 FILLER_34_197
*1459 FILLER_34_20
*1460 FILLER_34_216
*1461 FILLER_34_236
*1462 FILLER_34_243
*1463 FILLER_34_250
*1464 FILLER_34_253
*1465 FILLER_34_271
*1466 FILLER_34_29
*1467 FILLER_34_291
*1468 FILLER_34_3
*1469 FILLER_34_303
*1470 FILLER_34_307
*1471 FILLER_34_309
*1472 FILLER_34_327
*1473 FILLER_34_335
*1474 FILLER_34_41
*1475 FILLER_34_56
*1476 FILLER_34_60
*1477 FILLER_34_64
*1478 FILLER_34_73
*1479 FILLER_34_8
*1480 FILLER_34_82
*1481 FILLER_34_85
*1482 FILLER_34_94
*1483 FILLER_35_103
*1484 FILLER_35_110
*1485 FILLER_35_113
*1486 FILLER_35_119
*1487 FILLER_35_12
*1488 FILLER_35_123
*1489 FILLER_35_131
*1490 FILLER_35_138
*1491 FILLER_35_141
*1492 FILLER_35_152
*1493 FILLER_35_156
*1494 FILLER_35_160
*1495 FILLER_35_169
*1496 FILLER_35_181
*1497 FILLER_35_19
*1498 FILLER_35_193
*1499 FILLER_35_197
*1500 FILLER_35_215
*1501 FILLER_35_222
*1502 FILLER_35_225
*1503 FILLER_35_243
*1504 FILLER_35_251
*1505 FILLER_35_253
*1506 FILLER_35_26
*1507 FILLER_35_265
*1508 FILLER_35_277
*1509 FILLER_35_281
*1510 FILLER_35_29
*1511 FILLER_35_299
*1512 FILLER_35_3
*1513 FILLER_35_307
*1514 FILLER_35_309
*1515 FILLER_35_327
*1516 FILLER_35_335
*1517 FILLER_35_337
*1518 FILLER_35_40
*1519 FILLER_35_47
*1520 FILLER_35_54
*1521 FILLER_35_57
*1522 FILLER_35_68
*1523 FILLER_35_75
*1524 FILLER_35_82
*1525 FILLER_35_85
*1526 FILLER_35_96
*1527 FILLER_3_105
*1528 FILLER_3_111
*1529 FILLER_3_113
*1530 FILLER_3_125
*1531 FILLER_3_137
*1532 FILLER_3_149
*1533 FILLER_3_15
*1534 FILLER_3_161
*1535 FILLER_3_167
*1536 FILLER_3_169
*1537 FILLER_3_181
*1538 FILLER_3_193
*1539 FILLER_3_205
*1540 FILLER_3_217
*1541 FILLER_3_223
*1542 FILLER_3_225
*1543 FILLER_3_237
*1544 FILLER_3_249
*1545 FILLER_3_261
*1546 FILLER_3_27
*1547 FILLER_3_273
*1548 FILLER_3_279
*1549 FILLER_3_281
*1550 FILLER_3_293
*1551 FILLER_3_3
*1552 FILLER_3_305
*1553 FILLER_3_317
*1554 FILLER_3_329
*1555 FILLER_3_335
*1556 FILLER_3_337
*1557 FILLER_3_39
*1558 FILLER_3_51
*1559 FILLER_3_55
*1560 FILLER_3_57
*1561 FILLER_3_69
*1562 FILLER_3_81
*1563 FILLER_3_93
*1564 FILLER_4_109
*1565 FILLER_4_121
*1566 FILLER_4_133
*1567 FILLER_4_139
*1568 FILLER_4_141
*1569 FILLER_4_15
*1570 FILLER_4_153
*1571 FILLER_4_165
*1572 FILLER_4_177
*1573 FILLER_4_189
*1574 FILLER_4_195
*1575 FILLER_4_197
*1576 FILLER_4_209
*1577 FILLER_4_217
*1578 FILLER_4_224
*1579 FILLER_4_231
*1580 FILLER_4_239
*1581 FILLER_4_251
*1582 FILLER_4_253
*1583 FILLER_4_262
*1584 FILLER_4_27
*1585 FILLER_4_274
*1586 FILLER_4_286
*1587 FILLER_4_29
*1588 FILLER_4_298
*1589 FILLER_4_3
*1590 FILLER_4_306
*1591 FILLER_4_309
*1592 FILLER_4_321
*1593 FILLER_4_333
*1594 FILLER_4_337
*1595 FILLER_4_41
*1596 FILLER_4_53
*1597 FILLER_4_65
*1598 FILLER_4_77
*1599 FILLER_4_83
*1600 FILLER_4_85
*1601 FILLER_4_97
*1602 FILLER_5_105
*1603 FILLER_5_111
*1604 FILLER_5_113
*1605 FILLER_5_125
*1606 FILLER_5_137
*1607 FILLER_5_149
*1608 FILLER_5_15
*1609 FILLER_5_161
*1610 FILLER_5_167
*1611 FILLER_5_169
*1612 FILLER_5_181
*1613 FILLER_5_193
*1614 FILLER_5_205
*1615 FILLER_5_222
*1616 FILLER_5_225
*1617 FILLER_5_234
*1618 FILLER_5_246
*1619 FILLER_5_254
*1620 FILLER_5_261
*1621 FILLER_5_268
*1622 FILLER_5_27
*1623 FILLER_5_281
*1624 FILLER_5_293
*1625 FILLER_5_3