*SPEF "ieee 1481-1999"
*DESIGN "user_project_wrapper"
*DATE "11:11:11 Fri 11 11, 1111"
*VENDOR "OpenRCX"
*PROGRAM "Parallel Extraction"
*VERSION "1.0"
*DESIGN_FLOW "NAME_SCOPE LOCAL" "PIN_CAP NONE"
*DIVIDER /
*DELIMITER :
*BUS_DELIMITER []
*T_UNIT 1 NS
*C_UNIT 1 PF
*R_UNIT 1 OHM
*L_UNIT 1 HENRY

*NAME_MAP
*1 analog_io[0]
*2 analog_io[10]
*3 analog_io[11]
*4 analog_io[12]
*5 analog_io[13]
*6 analog_io[14]
*7 analog_io[15]
*8 analog_io[16]
*9 analog_io[17]
*10 analog_io[18]
*11 analog_io[19]
*12 analog_io[1]
*13 analog_io[20]
*14 analog_io[21]
*15 analog_io[22]
*16 analog_io[23]
*17 analog_io[24]
*18 analog_io[25]
*19 analog_io[26]
*20 analog_io[27]
*21 analog_io[28]
*22 analog_io[2]
*23 analog_io[3]
*24 analog_io[4]
*25 analog_io[5]
*26 analog_io[6]
*27 analog_io[7]
*28 analog_io[8]
*29 analog_io[9]
*30 io_in[0]
*31 io_in[10]
*32 io_in[11]
*33 io_in[12]
*34 io_in[13]
*35 io_in[14]
*36 io_in[15]
*37 io_in[16]
*38 io_in[17]
*39 io_in[18]
*40 io_in[19]
*41 io_in[1]
*42 io_in[20]
*43 io_in[21]
*44 io_in[22]
*45 io_in[23]
*46 io_in[24]
*47 io_in[25]
*48 io_in[26]
*49 io_in[27]
*50 io_in[28]
*51 io_in[29]
*52 io_in[2]
*53 io_in[30]
*54 io_in[31]
*55 io_in[32]
*56 io_in[33]
*57 io_in[34]
*58 io_in[35]
*59 io_in[36]
*60 io_in[37]
*61 io_in[3]
*62 io_in[4]
*63 io_in[5]
*64 io_in[6]
*65 io_in[7]
*66 io_in[8]
*67 io_in[9]
*68 tt_top1\.io_oeb\[0\]
*69 tt_top1\.io_oeb\[16\]
*70 io_oeb[24]
*71 io_oeb[25]
*72 io_oeb[26]
*73 io_oeb[27]
*74 io_oeb[28]
*75 io_oeb[29]
*76 io_oeb[30]
*77 io_oeb[31]
*78 io_out[16]
*79 io_out[17]
*80 io_out[18]
*81 io_out[19]
*82 io_out[20]
*83 io_out[21]
*84 io_out[22]
*85 io_out[23]
*86 io_out[24]
*87 io_out[25]
*88 io_out[26]
*89 io_out[27]
*90 io_out[28]
*91 io_out[29]
*92 io_out[30]
*93 io_out[31]
*94 user_clock2
*95 la_data_in[0]
*96 la_data_in[100]
*97 la_data_in[101]
*98 la_data_in[102]
*99 la_data_in[103]
*100 la_data_in[104]
*101 la_data_in[105]
*102 la_data_in[106]
*103 la_data_in[107]
*104 la_data_in[108]
*105 la_data_in[109]
*106 la_data_in[10]
*107 la_data_in[110]
*108 la_data_in[111]
*109 la_data_in[112]
*110 la_data_in[113]
*111 la_data_in[114]
*112 la_data_in[115]
*113 la_data_in[116]
*114 la_data_in[117]
*115 la_data_in[118]
*116 la_data_in[119]
*117 la_data_in[11]
*118 la_data_in[120]
*119 la_data_in[121]
*120 la_data_in[122]
*121 la_data_in[123]
*122 la_data_in[124]
*123 la_data_in[125]
*124 la_data_in[126]
*125 la_data_in[127]
*126 la_data_in[12]
*127 la_data_in[13]
*128 la_data_in[14]
*129 la_data_in[15]
*130 la_data_in[16]
*131 la_data_in[17]
*132 la_data_in[18]
*133 la_data_in[19]
*134 la_data_in[1]
*135 la_data_in[20]
*136 la_data_in[21]
*137 la_data_in[22]
*138 la_data_in[23]
*139 la_data_in[24]
*140 la_data_in[25]
*141 la_data_in[26]
*142 la_data_in[27]
*143 la_data_in[28]
*144 la_data_in[29]
*145 la_data_in[2]
*146 la_data_in[30]
*147 la_data_in[31]
*148 la_data_in[32]
*149 la_data_in[33]
*150 la_data_in[34]
*151 la_data_in[35]
*152 la_data_in[36]
*153 la_data_in[37]
*154 la_data_in[38]
*155 la_data_in[39]
*156 la_data_in[3]
*157 la_data_in[40]
*158 la_data_in[41]
*159 la_data_in[42]
*160 la_data_in[43]
*161 la_data_in[44]
*162 la_data_in[45]
*163 la_data_in[46]
*164 la_data_in[47]
*165 la_data_in[48]
*166 la_data_in[49]
*167 la_data_in[4]
*168 la_data_in[50]
*169 la_data_in[51]
*170 la_data_in[52]
*171 la_data_in[53]
*172 la_data_in[54]
*173 la_data_in[55]
*174 la_data_in[56]
*175 la_data_in[57]
*176 la_data_in[58]
*177 la_data_in[59]
*178 la_data_in[5]
*179 la_data_in[60]
*180 la_data_in[61]
*181 la_data_in[62]
*182 la_data_in[63]
*183 la_data_in[64]
*184 la_data_in[65]
*185 la_data_in[66]
*186 la_data_in[67]
*187 la_data_in[68]
*188 la_data_in[69]
*189 la_data_in[6]
*190 la_data_in[70]
*191 la_data_in[71]
*192 la_data_in[72]
*193 la_data_in[73]
*194 la_data_in[74]
*195 la_data_in[75]
*196 la_data_in[76]
*197 la_data_in[77]
*198 la_data_in[78]
*199 la_data_in[79]
*200 la_data_in[7]
*201 la_data_in[80]
*202 la_data_in[81]
*203 la_data_in[82]
*204 la_data_in[83]
*205 la_data_in[84]
*206 la_data_in[85]
*207 la_data_in[86]
*208 la_data_in[87]
*209 la_data_in[88]
*210 la_data_in[89]
*211 la_data_in[8]
*212 la_data_in[90]
*213 la_data_in[91]
*214 la_data_in[92]
*215 la_data_in[93]
*216 la_data_in[94]
*217 la_data_in[95]
*218 la_data_in[96]
*219 la_data_in[97]
*220 la_data_in[98]
*221 la_data_in[99]
*222 la_data_in[9]
*223 la_data_out[0]
*224 la_data_out[100]
*225 la_data_out[101]
*226 la_data_out[102]
*227 la_data_out[103]
*228 la_data_out[104]
*229 la_data_out[105]
*230 la_data_out[106]
*231 la_data_out[107]
*232 la_data_out[108]
*233 la_data_out[109]
*234 la_data_out[10]
*235 la_data_out[110]
*236 la_data_out[111]
*237 la_data_out[112]
*238 la_data_out[113]
*239 la_data_out[114]
*240 la_data_out[115]
*241 la_data_out[116]
*242 la_data_out[117]
*243 la_data_out[118]
*244 la_data_out[119]
*245 la_data_out[11]
*246 la_data_out[120]
*247 la_data_out[121]
*248 la_data_out[122]
*249 la_data_out[123]
*250 la_data_out[124]
*251 la_data_out[125]
*252 la_data_out[126]
*253 la_data_out[127]
*254 la_data_out[12]
*255 la_data_out[13]
*256 la_data_out[14]
*257 la_data_out[15]
*258 la_data_out[16]
*259 la_data_out[17]
*260 la_data_out[18]
*261 la_data_out[19]
*262 la_data_out[1]
*263 la_data_out[20]
*264 la_data_out[21]
*265 la_data_out[22]
*266 la_data_out[23]
*267 la_data_out[24]
*268 la_data_out[25]
*269 la_data_out[26]
*270 la_data_out[27]
*271 la_data_out[28]
*272 la_data_out[29]
*273 la_data_out[2]
*274 la_data_out[30]
*275 la_data_out[31]
*276 la_data_out[32]
*277 la_data_out[33]
*278 la_data_out[34]
*279 la_data_out[35]
*280 la_data_out[36]
*281 la_data_out[37]
*282 la_data_out[38]
*283 la_data_out[39]
*284 la_data_out[3]
*285 la_data_out[40]
*286 la_data_out[41]
*287 la_data_out[42]
*288 la_data_out[43]
*289 la_data_out[44]
*290 la_data_out[45]
*291 la_data_out[46]
*292 la_data_out[47]
*293 la_data_out[48]
*294 la_data_out[49]
*295 la_data_out[4]
*296 la_data_out[50]
*297 la_data_out[51]
*298 la_data_out[52]
*299 la_data_out[53]
*300 la_data_out[54]
*301 la_data_out[55]
*302 la_data_out[56]
*303 la_data_out[57]
*304 la_data_out[58]
*305 la_data_out[59]
*306 la_data_out[5]
*307 la_data_out[60]
*308 la_data_out[61]
*309 la_data_out[62]
*310 la_data_out[63]
*311 la_data_out[64]
*312 la_data_out[65]
*313 la_data_out[66]
*314 la_data_out[67]
*315 la_data_out[68]
*316 la_data_out[69]
*317 la_data_out[6]
*318 la_data_out[70]
*319 la_data_out[71]
*320 la_data_out[72]
*321 la_data_out[73]
*322 la_data_out[74]
*323 la_data_out[75]
*324 la_data_out[76]
*325 la_data_out[77]
*326 la_data_out[78]
*327 la_data_out[79]
*328 la_data_out[7]
*329 la_data_out[80]
*330 la_data_out[81]
*331 la_data_out[82]
*332 la_data_out[83]
*333 la_data_out[84]
*334 la_data_out[85]
*335 la_data_out[86]
*336 la_data_out[87]
*337 la_data_out[88]
*338 la_data_out[89]
*339 la_data_out[8]
*340 la_data_out[90]
*341 la_data_out[91]
*342 la_data_out[92]
*343 la_data_out[93]
*344 la_data_out[94]
*345 la_data_out[95]
*346 la_data_out[96]
*347 la_data_out[97]
*348 la_data_out[98]
*349 la_data_out[99]
*350 la_data_out[9]
*351 la_oenb[0]
*352 la_oenb[100]
*353 la_oenb[101]
*354 la_oenb[102]
*355 la_oenb[103]
*356 la_oenb[104]
*357 la_oenb[105]
*358 la_oenb[106]
*359 la_oenb[107]
*360 la_oenb[108]
*361 la_oenb[109]
*362 la_oenb[10]
*363 la_oenb[110]
*364 la_oenb[111]
*365 la_oenb[112]
*366 la_oenb[113]
*367 la_oenb[114]
*368 la_oenb[115]
*369 la_oenb[116]
*370 la_oenb[117]
*371 la_oenb[118]
*372 la_oenb[119]
*373 la_oenb[11]
*374 la_oenb[120]
*375 la_oenb[121]
*376 la_oenb[122]
*377 la_oenb[123]
*378 la_oenb[124]
*379 la_oenb[125]
*380 la_oenb[126]
*381 la_oenb[127]
*382 la_oenb[12]
*383 la_oenb[13]
*384 la_oenb[14]
*385 la_oenb[15]
*386 la_oenb[16]
*387 la_oenb[17]
*388 la_oenb[18]
*389 la_oenb[19]
*390 la_oenb[1]
*391 la_oenb[20]
*392 la_oenb[21]
*393 la_oenb[22]
*394 la_oenb[23]
*395 la_oenb[24]
*396 la_oenb[25]
*397 la_oenb[26]
*398 la_oenb[27]
*399 la_oenb[28]
*400 la_oenb[29]
*401 la_oenb[2]
*402 la_oenb[30]
*403 la_oenb[31]
*404 la_oenb[32]
*405 la_oenb[33]
*406 la_oenb[34]
*407 la_oenb[35]
*408 la_oenb[36]
*409 la_oenb[37]
*410 la_oenb[38]
*411 la_oenb[39]
*412 la_oenb[3]
*413 la_oenb[40]
*414 la_oenb[41]
*415 la_oenb[42]
*416 la_oenb[43]
*417 la_oenb[44]
*418 la_oenb[45]
*419 la_oenb[46]
*420 la_oenb[47]
*421 la_oenb[48]
*422 la_oenb[49]
*423 la_oenb[4]
*424 la_oenb[50]
*425 la_oenb[51]
*426 la_oenb[52]
*427 la_oenb[53]
*428 la_oenb[54]
*429 la_oenb[55]
*430 la_oenb[56]
*431 la_oenb[57]
*432 la_oenb[58]
*433 la_oenb[59]
*434 la_oenb[5]
*435 la_oenb[60]
*436 la_oenb[61]
*437 la_oenb[62]
*438 la_oenb[63]
*439 la_oenb[64]
*440 la_oenb[65]
*441 la_oenb[66]
*442 la_oenb[67]
*443 la_oenb[68]
*444 la_oenb[69]
*445 la_oenb[6]
*446 la_oenb[70]
*447 la_oenb[71]
*448 la_oenb[72]
*449 la_oenb[73]
*450 la_oenb[74]
*451 la_oenb[75]
*452 la_oenb[76]
*453 la_oenb[77]
*454 la_oenb[78]
*455 la_oenb[79]
*456 la_oenb[7]
*457 la_oenb[80]
*458 la_oenb[81]
*459 la_oenb[82]
*460 la_oenb[83]
*461 la_oenb[84]
*462 la_oenb[85]
*463 la_oenb[86]
*464 la_oenb[87]
*465 la_oenb[88]
*466 la_oenb[89]
*467 la_oenb[8]
*468 la_oenb[90]
*469 la_oenb[91]
*470 la_oenb[92]
*471 la_oenb[93]
*472 la_oenb[94]
*473 la_oenb[95]
*474 la_oenb[96]
*475 la_oenb[97]
*476 la_oenb[98]
*477 la_oenb[99]
*478 la_oenb[9]
*479 user_irq[0]
*480 user_irq[1]
*481 user_irq[2]
*490 wb_clk_i
*491 wb_rst_i
*492 wbs_ack_o
*493 wbs_adr_i[0]
*494 wbs_adr_i[10]
*495 wbs_adr_i[11]
*496 wbs_adr_i[12]
*497 wbs_adr_i[13]
*498 wbs_adr_i[14]
*499 wbs_adr_i[15]
*500 wbs_adr_i[16]
*501 wbs_adr_i[17]
*502 wbs_adr_i[18]
*503 wbs_adr_i[19]
*504 wbs_adr_i[1]
*505 wbs_adr_i[20]
*506 wbs_adr_i[21]
*507 wbs_adr_i[22]
*508 wbs_adr_i[23]
*509 wbs_adr_i[24]
*510 wbs_adr_i[25]
*511 wbs_adr_i[26]
*512 wbs_adr_i[27]
*513 wbs_adr_i[28]
*514 wbs_adr_i[29]
*515 wbs_adr_i[2]
*516 wbs_adr_i[30]
*517 wbs_adr_i[31]
*518 wbs_adr_i[3]
*519 wbs_adr_i[4]
*520 wbs_adr_i[5]
*521 wbs_adr_i[6]
*522 wbs_adr_i[7]
*523 wbs_adr_i[8]
*524 wbs_adr_i[9]
*525 wbs_cyc_i
*526 wbs_dat_i[0]
*527 wbs_dat_i[10]
*528 wbs_dat_i[11]
*529 wbs_dat_i[12]
*530 wbs_dat_i[13]
*531 wbs_dat_i[14]
*532 wbs_dat_i[15]
*533 wbs_dat_i[16]
*534 wbs_dat_i[17]
*535 wbs_dat_i[18]
*536 wbs_dat_i[19]
*537 wbs_dat_i[1]
*538 wbs_dat_i[20]
*539 wbs_dat_i[21]
*540 wbs_dat_i[22]
*541 wbs_dat_i[23]
*542 wbs_dat_i[24]
*543 wbs_dat_i[25]
*544 wbs_dat_i[26]
*545 wbs_dat_i[27]
*546 wbs_dat_i[28]
*547 wbs_dat_i[29]
*548 wbs_dat_i[2]
*549 wbs_dat_i[30]
*550 wbs_dat_i[31]
*551 wbs_dat_i[3]
*552 wbs_dat_i[4]
*553 wbs_dat_i[5]
*554 wbs_dat_i[6]
*555 wbs_dat_i[7]
*556 wbs_dat_i[8]
*557 wbs_dat_i[9]
*558 wbs_dat_o[0]
*559 wbs_dat_o[10]
*560 wbs_dat_o[11]
*561 wbs_dat_o[12]
*562 wbs_dat_o[13]
*563 wbs_dat_o[14]
*564 wbs_dat_o[15]
*565 wbs_dat_o[16]
*566 wbs_dat_o[17]
*567 wbs_dat_o[18]
*568 wbs_dat_o[19]
*569 wbs_dat_o[1]
*570 wbs_dat_o[20]
*571 wbs_dat_o[21]
*572 wbs_dat_o[22]
*573 wbs_dat_o[23]
*574 wbs_dat_o[24]
*575 wbs_dat_o[25]
*576 wbs_dat_o[26]
*577 wbs_dat_o[27]
*578 wbs_dat_o[28]
*579 wbs_dat_o[29]
*580 wbs_dat_o[2]
*581 wbs_dat_o[30]
*582 wbs_dat_o[31]
*583 wbs_dat_o[3]
*584 wbs_dat_o[4]
*585 wbs_dat_o[5]
*586 wbs_dat_o[6]
*587 wbs_dat_o[7]
*588 wbs_dat_o[8]
*589 wbs_dat_o[9]
*590 wbs_sel_i[0]
*591 wbs_sel_i[1]
*592 wbs_sel_i[2]
*593 wbs_sel_i[3]
*594 wbs_stb_i
*595 wbs_we_i
*596 tt_top1\.branch\[0\]\.col_um\[0\]\.um_bot_I\.clk
*597 tt_top1\.branch\[0\]\.col_um\[0\]\.um_bot_I\.ena
*598 tt_top1\.branch\[0\]\.col_um\[0\]\.um_bot_I\.iw\[10\]
*599 tt_top1\.branch\[0\]\.col_um\[0\]\.um_bot_I\.iw\[11\]
*600 tt_top1\.branch\[0\]\.col_um\[0\]\.um_bot_I\.iw\[12\]
*601 tt_top1\.branch\[0\]\.col_um\[0\]\.um_bot_I\.iw\[13\]
*602 tt_top1\.branch\[0\]\.col_um\[0\]\.um_bot_I\.iw\[14\]
*603 tt_top1\.branch\[0\]\.col_um\[0\]\.um_bot_I\.iw\[15\]
*604 tt_top1\.branch\[0\]\.col_um\[0\]\.um_bot_I\.iw\[16\]
*605 tt_top1\.branch\[0\]\.col_um\[0\]\.um_bot_I\.iw\[17\]
*606 tt_top1\.branch\[0\]\.col_um\[0\]\.um_bot_I\.iw\[1\]
*607 tt_top1\.branch\[0\]\.col_um\[0\]\.um_bot_I\.iw\[2\]
*608 tt_top1\.branch\[0\]\.col_um\[0\]\.um_bot_I\.iw\[3\]
*609 tt_top1\.branch\[0\]\.col_um\[0\]\.um_bot_I\.iw\[4\]
*610 tt_top1\.branch\[0\]\.col_um\[0\]\.um_bot_I\.iw\[5\]
*611 tt_top1\.branch\[0\]\.col_um\[0\]\.um_bot_I\.iw\[6\]
*612 tt_top1\.branch\[0\]\.col_um\[0\]\.um_bot_I\.iw\[7\]
*613 tt_top1\.branch\[0\]\.col_um\[0\]\.um_bot_I\.iw\[8\]
*614 tt_top1\.branch\[0\]\.col_um\[0\]\.um_bot_I\.iw\[9\]
*615 tt_top1\.branch\[0\]\.col_um\[0\]\.um_bot_I\.k_zero
*616 tt_top1\.branch\[0\]\.col_um\[0\]\.um_bot_I\.ow\[0\]
*617 tt_top1\.branch\[0\]\.col_um\[0\]\.um_bot_I\.ow\[10\]
*618 tt_top1\.branch\[0\]\.col_um\[0\]\.um_bot_I\.ow\[11\]
*619 tt_top1\.branch\[0\]\.col_um\[0\]\.um_bot_I\.ow\[12\]
*620 tt_top1\.branch\[0\]\.col_um\[0\]\.um_bot_I\.ow\[13\]
*621 tt_top1\.branch\[0\]\.col_um\[0\]\.um_bot_I\.ow\[14\]
*622 tt_top1\.branch\[0\]\.col_um\[0\]\.um_bot_I\.ow\[15\]
*623 tt_top1\.branch\[0\]\.col_um\[0\]\.um_bot_I\.ow\[16\]
*624 tt_top1\.branch\[0\]\.col_um\[0\]\.um_bot_I\.ow\[17\]
*625 tt_top1\.branch\[0\]\.col_um\[0\]\.um_bot_I\.ow\[18\]
*626 tt_top1\.branch\[0\]\.col_um\[0\]\.um_bot_I\.ow\[19\]
*627 tt_top1\.branch\[0\]\.col_um\[0\]\.um_bot_I\.ow\[1\]
*628 tt_top1\.branch\[0\]\.col_um\[0\]\.um_bot_I\.ow\[20\]
*629 tt_top1\.branch\[0\]\.col_um\[0\]\.um_bot_I\.ow\[21\]
*630 tt_top1\.branch\[0\]\.col_um\[0\]\.um_bot_I\.ow\[22\]
*631 tt_top1\.branch\[0\]\.col_um\[0\]\.um_bot_I\.ow\[23\]
*632 tt_top1\.branch\[0\]\.col_um\[0\]\.um_bot_I\.ow\[2\]
*633 tt_top1\.branch\[0\]\.col_um\[0\]\.um_bot_I\.ow\[3\]
*634 tt_top1\.branch\[0\]\.col_um\[0\]\.um_bot_I\.ow\[4\]
*635 tt_top1\.branch\[0\]\.col_um\[0\]\.um_bot_I\.ow\[5\]
*636 tt_top1\.branch\[0\]\.col_um\[0\]\.um_bot_I\.ow\[6\]
*637 tt_top1\.branch\[0\]\.col_um\[0\]\.um_bot_I\.ow\[7\]
*638 tt_top1\.branch\[0\]\.col_um\[0\]\.um_bot_I\.ow\[8\]
*639 tt_top1\.branch\[0\]\.col_um\[0\]\.um_bot_I\.ow\[9\]
*640 tt_top1\.branch\[0\]\.col_um\[0\]\.um_top_I\.clk
*641 tt_top1\.branch\[0\]\.col_um\[0\]\.um_top_I\.ena
*642 tt_top1\.branch\[0\]\.col_um\[0\]\.um_top_I\.iw\[10\]
*643 tt_top1\.branch\[0\]\.col_um\[0\]\.um_top_I\.iw\[11\]
*644 tt_top1\.branch\[0\]\.col_um\[0\]\.um_top_I\.iw\[12\]
*645 tt_top1\.branch\[0\]\.col_um\[0\]\.um_top_I\.iw\[13\]
*646 tt_top1\.branch\[0\]\.col_um\[0\]\.um_top_I\.iw\[14\]
*647 tt_top1\.branch\[0\]\.col_um\[0\]\.um_top_I\.iw\[15\]
*648 tt_top1\.branch\[0\]\.col_um\[0\]\.um_top_I\.iw\[16\]
*649 tt_top1\.branch\[0\]\.col_um\[0\]\.um_top_I\.iw\[17\]
*650 tt_top1\.branch\[0\]\.col_um\[0\]\.um_top_I\.iw\[1\]
*651 tt_top1\.branch\[0\]\.col_um\[0\]\.um_top_I\.iw\[2\]
*652 tt_top1\.branch\[0\]\.col_um\[0\]\.um_top_I\.iw\[3\]
*653 tt_top1\.branch\[0\]\.col_um\[0\]\.um_top_I\.iw\[4\]
*654 tt_top1\.branch\[0\]\.col_um\[0\]\.um_top_I\.iw\[5\]
*655 tt_top1\.branch\[0\]\.col_um\[0\]\.um_top_I\.iw\[6\]
*656 tt_top1\.branch\[0\]\.col_um\[0\]\.um_top_I\.iw\[7\]
*657 tt_top1\.branch\[0\]\.col_um\[0\]\.um_top_I\.iw\[8\]
*658 tt_top1\.branch\[0\]\.col_um\[0\]\.um_top_I\.iw\[9\]
*659 tt_top1\.branch\[0\]\.col_um\[0\]\.um_top_I\.k_zero
*660 tt_top1\.branch\[0\]\.col_um\[0\]\.um_top_I\.ow\[0\]
*661 tt_top1\.branch\[0\]\.col_um\[0\]\.um_top_I\.ow\[10\]
*662 tt_top1\.branch\[0\]\.col_um\[0\]\.um_top_I\.ow\[11\]
*663 tt_top1\.branch\[0\]\.col_um\[0\]\.um_top_I\.ow\[12\]
*664 tt_top1\.branch\[0\]\.col_um\[0\]\.um_top_I\.ow\[13\]
*665 tt_top1\.branch\[0\]\.col_um\[0\]\.um_top_I\.ow\[14\]
*666 tt_top1\.branch\[0\]\.col_um\[0\]\.um_top_I\.ow\[15\]
*667 tt_top1\.branch\[0\]\.col_um\[0\]\.um_top_I\.ow\[16\]
*668 tt_top1\.branch\[0\]\.col_um\[0\]\.um_top_I\.ow\[17\]
*669 tt_top1\.branch\[0\]\.col_um\[0\]\.um_top_I\.ow\[18\]
*670 tt_top1\.branch\[0\]\.col_um\[0\]\.um_top_I\.ow\[19\]
*671 tt_top1\.branch\[0\]\.col_um\[0\]\.um_top_I\.ow\[1\]
*672 tt_top1\.branch\[0\]\.col_um\[0\]\.um_top_I\.ow\[20\]
*673 tt_top1\.branch\[0\]\.col_um\[0\]\.um_top_I\.ow\[21\]
*674 tt_top1\.branch\[0\]\.col_um\[0\]\.um_top_I\.ow\[22\]
*675 tt_top1\.branch\[0\]\.col_um\[0\]\.um_top_I\.ow\[23\]
*676 tt_top1\.branch\[0\]\.col_um\[0\]\.um_top_I\.ow\[2\]
*677 tt_top1\.branch\[0\]\.col_um\[0\]\.um_top_I\.ow\[3\]
*678 tt_top1\.branch\[0\]\.col_um\[0\]\.um_top_I\.ow\[4\]
*679 tt_top1\.branch\[0\]\.col_um\[0\]\.um_top_I\.ow\[5\]
*680 tt_top1\.branch\[0\]\.col_um\[0\]\.um_top_I\.ow\[6\]
*681 tt_top1\.branch\[0\]\.col_um\[0\]\.um_top_I\.ow\[7\]
*682 tt_top1\.branch\[0\]\.col_um\[0\]\.um_top_I\.ow\[8\]
*683 tt_top1\.branch\[0\]\.col_um\[0\]\.um_top_I\.ow\[9\]
*684 tt_top1\.branch\[0\]\.col_um\[1\]\.um_bot_I\.clk
*685 tt_top1\.branch\[0\]\.col_um\[1\]\.um_bot_I\.ena
*686 tt_top1\.branch\[0\]\.col_um\[1\]\.um_bot_I\.iw\[10\]
*687 tt_top1\.branch\[0\]\.col_um\[1\]\.um_bot_I\.iw\[11\]
*688 tt_top1\.branch\[0\]\.col_um\[1\]\.um_bot_I\.iw\[12\]
*689 tt_top1\.branch\[0\]\.col_um\[1\]\.um_bot_I\.iw\[13\]
*690 tt_top1\.branch\[0\]\.col_um\[1\]\.um_bot_I\.iw\[14\]
*691 tt_top1\.branch\[0\]\.col_um\[1\]\.um_bot_I\.iw\[15\]
*692 tt_top1\.branch\[0\]\.col_um\[1\]\.um_bot_I\.iw\[16\]
*693 tt_top1\.branch\[0\]\.col_um\[1\]\.um_bot_I\.iw\[17\]
*694 tt_top1\.branch\[0\]\.col_um\[1\]\.um_bot_I\.iw\[1\]
*695 tt_top1\.branch\[0\]\.col_um\[1\]\.um_bot_I\.iw\[2\]
*696 tt_top1\.branch\[0\]\.col_um\[1\]\.um_bot_I\.iw\[3\]
*697 tt_top1\.branch\[0\]\.col_um\[1\]\.um_bot_I\.iw\[4\]
*698 tt_top1\.branch\[0\]\.col_um\[1\]\.um_bot_I\.iw\[5\]
*699 tt_top1\.branch\[0\]\.col_um\[1\]\.um_bot_I\.iw\[6\]
*700 tt_top1\.branch\[0\]\.col_um\[1\]\.um_bot_I\.iw\[7\]
*701 tt_top1\.branch\[0\]\.col_um\[1\]\.um_bot_I\.iw\[8\]
*702 tt_top1\.branch\[0\]\.col_um\[1\]\.um_bot_I\.iw\[9\]
*703 tt_top1\.branch\[0\]\.col_um\[1\]\.um_bot_I\.k_zero
*704 tt_top1\.branch\[0\]\.col_um\[1\]\.um_bot_I\.ow\[0\]
*705 tt_top1\.branch\[0\]\.col_um\[1\]\.um_bot_I\.ow\[10\]
*706 tt_top1\.branch\[0\]\.col_um\[1\]\.um_bot_I\.ow\[11\]
*707 tt_top1\.branch\[0\]\.col_um\[1\]\.um_bot_I\.ow\[12\]
*708 tt_top1\.branch\[0\]\.col_um\[1\]\.um_bot_I\.ow\[13\]
*709 tt_top1\.branch\[0\]\.col_um\[1\]\.um_bot_I\.ow\[14\]
*710 tt_top1\.branch\[0\]\.col_um\[1\]\.um_bot_I\.ow\[15\]
*711 tt_top1\.branch\[0\]\.col_um\[1\]\.um_bot_I\.ow\[16\]
*712 tt_top1\.branch\[0\]\.col_um\[1\]\.um_bot_I\.ow\[17\]
*713 tt_top1\.branch\[0\]\.col_um\[1\]\.um_bot_I\.ow\[18\]
*714 tt_top1\.branch\[0\]\.col_um\[1\]\.um_bot_I\.ow\[19\]
*715 tt_top1\.branch\[0\]\.col_um\[1\]\.um_bot_I\.ow\[1\]
*716 tt_top1\.branch\[0\]\.col_um\[1\]\.um_bot_I\.ow\[20\]
*717 tt_top1\.branch\[0\]\.col_um\[1\]\.um_bot_I\.ow\[21\]
*718 tt_top1\.branch\[0\]\.col_um\[1\]\.um_bot_I\.ow\[22\]
*719 tt_top1\.branch\[0\]\.col_um\[1\]\.um_bot_I\.ow\[23\]
*720 tt_top1\.branch\[0\]\.col_um\[1\]\.um_bot_I\.ow\[2\]
*721 tt_top1\.branch\[0\]\.col_um\[1\]\.um_bot_I\.ow\[3\]
*722 tt_top1\.branch\[0\]\.col_um\[1\]\.um_bot_I\.ow\[4\]
*723 tt_top1\.branch\[0\]\.col_um\[1\]\.um_bot_I\.ow\[5\]
*724 tt_top1\.branch\[0\]\.col_um\[1\]\.um_bot_I\.ow\[6\]
*725 tt_top1\.branch\[0\]\.col_um\[1\]\.um_bot_I\.ow\[7\]
*726 tt_top1\.branch\[0\]\.col_um\[1\]\.um_bot_I\.ow\[8\]
*727 tt_top1\.branch\[0\]\.col_um\[1\]\.um_bot_I\.ow\[9\]
*728 tt_top1\.branch\[0\]\.col_um\[1\]\.um_top_I\.clk
*729 tt_top1\.branch\[0\]\.col_um\[1\]\.um_top_I\.ena
*730 tt_top1\.branch\[0\]\.col_um\[1\]\.um_top_I\.iw\[10\]
*731 tt_top1\.branch\[0\]\.col_um\[1\]\.um_top_I\.iw\[11\]
*732 tt_top1\.branch\[0\]\.col_um\[1\]\.um_top_I\.iw\[12\]
*733 tt_top1\.branch\[0\]\.col_um\[1\]\.um_top_I\.iw\[13\]
*734 tt_top1\.branch\[0\]\.col_um\[1\]\.um_top_I\.iw\[14\]
*735 tt_top1\.branch\[0\]\.col_um\[1\]\.um_top_I\.iw\[15\]
*736 tt_top1\.branch\[0\]\.col_um\[1\]\.um_top_I\.iw\[16\]
*737 tt_top1\.branch\[0\]\.col_um\[1\]\.um_top_I\.iw\[17\]
*738 tt_top1\.branch\[0\]\.col_um\[1\]\.um_top_I\.iw\[1\]
*739 tt_top1\.branch\[0\]\.col_um\[1\]\.um_top_I\.iw\[2\]
*740 tt_top1\.branch\[0\]\.col_um\[1\]\.um_top_I\.iw\[3\]
*741 tt_top1\.branch\[0\]\.col_um\[1\]\.um_top_I\.iw\[4\]
*742 tt_top1\.branch\[0\]\.col_um\[1\]\.um_top_I\.iw\[5\]
*743 tt_top1\.branch\[0\]\.col_um\[1\]\.um_top_I\.iw\[6\]
*744 tt_top1\.branch\[0\]\.col_um\[1\]\.um_top_I\.iw\[7\]
*745 tt_top1\.branch\[0\]\.col_um\[1\]\.um_top_I\.iw\[8\]
*746 tt_top1\.branch\[0\]\.col_um\[1\]\.um_top_I\.iw\[9\]
*747 tt_top1\.branch\[0\]\.col_um\[1\]\.um_top_I\.k_zero
*748 tt_top1\.branch\[0\]\.col_um\[1\]\.um_top_I\.ow\[0\]
*749 tt_top1\.branch\[0\]\.col_um\[1\]\.um_top_I\.ow\[10\]
*750 tt_top1\.branch\[0\]\.col_um\[1\]\.um_top_I\.ow\[11\]
*751 tt_top1\.branch\[0\]\.col_um\[1\]\.um_top_I\.ow\[12\]
*752 tt_top1\.branch\[0\]\.col_um\[1\]\.um_top_I\.ow\[13\]
*753 tt_top1\.branch\[0\]\.col_um\[1\]\.um_top_I\.ow\[14\]
*754 tt_top1\.branch\[0\]\.col_um\[1\]\.um_top_I\.ow\[15\]
*755 tt_top1\.branch\[0\]\.col_um\[1\]\.um_top_I\.ow\[16\]
*756 tt_top1\.branch\[0\]\.col_um\[1\]\.um_top_I\.ow\[17\]
*757 tt_top1\.branch\[0\]\.col_um\[1\]\.um_top_I\.ow\[18\]
*758 tt_top1\.branch\[0\]\.col_um\[1\]\.um_top_I\.ow\[19\]
*759 tt_top1\.branch\[0\]\.col_um\[1\]\.um_top_I\.ow\[1\]
*760 tt_top1\.branch\[0\]\.col_um\[1\]\.um_top_I\.ow\[20\]
*761 tt_top1\.branch\[0\]\.col_um\[1\]\.um_top_I\.ow\[21\]
*762 tt_top1\.branch\[0\]\.col_um\[1\]\.um_top_I\.ow\[22\]
*763 tt_top1\.branch\[0\]\.col_um\[1\]\.um_top_I\.ow\[23\]
*764 tt_top1\.branch\[0\]\.col_um\[1\]\.um_top_I\.ow\[2\]
*765 tt_top1\.branch\[0\]\.col_um\[1\]\.um_top_I\.ow\[3\]
*766 tt_top1\.branch\[0\]\.col_um\[1\]\.um_top_I\.ow\[4\]
*767 tt_top1\.branch\[0\]\.col_um\[1\]\.um_top_I\.ow\[5\]
*768 tt_top1\.branch\[0\]\.col_um\[1\]\.um_top_I\.ow\[6\]
*769 tt_top1\.branch\[0\]\.col_um\[1\]\.um_top_I\.ow\[7\]
*770 tt_top1\.branch\[0\]\.col_um\[1\]\.um_top_I\.ow\[8\]
*771 tt_top1\.branch\[0\]\.col_um\[1\]\.um_top_I\.ow\[9\]
*772 tt_top1\.branch\[0\]\.col_um\[2\]\.um_bot_I\.clk
*773 tt_top1\.branch\[0\]\.col_um\[2\]\.um_bot_I\.ena
*774 tt_top1\.branch\[0\]\.col_um\[2\]\.um_bot_I\.iw\[10\]
*775 tt_top1\.branch\[0\]\.col_um\[2\]\.um_bot_I\.iw\[11\]
*776 tt_top1\.branch\[0\]\.col_um\[2\]\.um_bot_I\.iw\[12\]
*777 tt_top1\.branch\[0\]\.col_um\[2\]\.um_bot_I\.iw\[13\]
*778 tt_top1\.branch\[0\]\.col_um\[2\]\.um_bot_I\.iw\[14\]
*779 tt_top1\.branch\[0\]\.col_um\[2\]\.um_bot_I\.iw\[15\]
*780 tt_top1\.branch\[0\]\.col_um\[2\]\.um_bot_I\.iw\[16\]
*781 tt_top1\.branch\[0\]\.col_um\[2\]\.um_bot_I\.iw\[17\]
*782 tt_top1\.branch\[0\]\.col_um\[2\]\.um_bot_I\.iw\[1\]
*783 tt_top1\.branch\[0\]\.col_um\[2\]\.um_bot_I\.iw\[2\]
*784 tt_top1\.branch\[0\]\.col_um\[2\]\.um_bot_I\.iw\[3\]
*785 tt_top1\.branch\[0\]\.col_um\[2\]\.um_bot_I\.iw\[4\]
*786 tt_top1\.branch\[0\]\.col_um\[2\]\.um_bot_I\.iw\[5\]
*787 tt_top1\.branch\[0\]\.col_um\[2\]\.um_bot_I\.iw\[6\]
*788 tt_top1\.branch\[0\]\.col_um\[2\]\.um_bot_I\.iw\[7\]
*789 tt_top1\.branch\[0\]\.col_um\[2\]\.um_bot_I\.iw\[8\]
*790 tt_top1\.branch\[0\]\.col_um\[2\]\.um_bot_I\.iw\[9\]
*791 tt_top1\.branch\[0\]\.col_um\[2\]\.um_bot_I\.k_zero
*792 tt_top1\.branch\[0\]\.col_um\[2\]\.um_bot_I\.ow\[0\]
*793 tt_top1\.branch\[0\]\.col_um\[2\]\.um_bot_I\.ow\[10\]
*794 tt_top1\.branch\[0\]\.col_um\[2\]\.um_bot_I\.ow\[11\]
*795 tt_top1\.branch\[0\]\.col_um\[2\]\.um_bot_I\.ow\[12\]
*796 tt_top1\.branch\[0\]\.col_um\[2\]\.um_bot_I\.ow\[13\]
*797 tt_top1\.branch\[0\]\.col_um\[2\]\.um_bot_I\.ow\[14\]
*798 tt_top1\.branch\[0\]\.col_um\[2\]\.um_bot_I\.ow\[15\]
*799 tt_top1\.branch\[0\]\.col_um\[2\]\.um_bot_I\.ow\[16\]
*800 tt_top1\.branch\[0\]\.col_um\[2\]\.um_bot_I\.ow\[17\]
*801 tt_top1\.branch\[0\]\.col_um\[2\]\.um_bot_I\.ow\[18\]
*802 tt_top1\.branch\[0\]\.col_um\[2\]\.um_bot_I\.ow\[19\]
*803 tt_top1\.branch\[0\]\.col_um\[2\]\.um_bot_I\.ow\[1\]
*804 tt_top1\.branch\[0\]\.col_um\[2\]\.um_bot_I\.ow\[20\]
*805 tt_top1\.branch\[0\]\.col_um\[2\]\.um_bot_I\.ow\[21\]
*806 tt_top1\.branch\[0\]\.col_um\[2\]\.um_bot_I\.ow\[22\]
*807 tt_top1\.branch\[0\]\.col_um\[2\]\.um_bot_I\.ow\[23\]
*808 tt_top1\.branch\[0\]\.col_um\[2\]\.um_bot_I\.ow\[2\]
*809 tt_top1\.branch\[0\]\.col_um\[2\]\.um_bot_I\.ow\[3\]
*810 tt_top1\.branch\[0\]\.col_um\[2\]\.um_bot_I\.ow\[4\]
*811 tt_top1\.branch\[0\]\.col_um\[2\]\.um_bot_I\.ow\[5\]
*812 tt_top1\.branch\[0\]\.col_um\[2\]\.um_bot_I\.ow\[6\]
*813 tt_top1\.branch\[0\]\.col_um\[2\]\.um_bot_I\.ow\[7\]
*814 tt_top1\.branch\[0\]\.col_um\[2\]\.um_bot_I\.ow\[8\]
*815 tt_top1\.branch\[0\]\.col_um\[2\]\.um_bot_I\.ow\[9\]
*816 tt_top1\.branch\[0\]\.col_um\[2\]\.um_top_I\.clk
*817 tt_top1\.branch\[0\]\.col_um\[2\]\.um_top_I\.ena
*818 tt_top1\.branch\[0\]\.col_um\[2\]\.um_top_I\.iw\[10\]
*819 tt_top1\.branch\[0\]\.col_um\[2\]\.um_top_I\.iw\[11\]
*820 tt_top1\.branch\[0\]\.col_um\[2\]\.um_top_I\.iw\[12\]
*821 tt_top1\.branch\[0\]\.col_um\[2\]\.um_top_I\.iw\[13\]
*822 tt_top1\.branch\[0\]\.col_um\[2\]\.um_top_I\.iw\[14\]
*823 tt_top1\.branch\[0\]\.col_um\[2\]\.um_top_I\.iw\[15\]
*824 tt_top1\.branch\[0\]\.col_um\[2\]\.um_top_I\.iw\[16\]
*825 tt_top1\.branch\[0\]\.col_um\[2\]\.um_top_I\.iw\[17\]
*826 tt_top1\.branch\[0\]\.col_um\[2\]\.um_top_I\.iw\[1\]
*827 tt_top1\.branch\[0\]\.col_um\[2\]\.um_top_I\.iw\[2\]
*828 tt_top1\.branch\[0\]\.col_um\[2\]\.um_top_I\.iw\[3\]
*829 tt_top1\.branch\[0\]\.col_um\[2\]\.um_top_I\.iw\[4\]
*830 tt_top1\.branch\[0\]\.col_um\[2\]\.um_top_I\.iw\[5\]
*831 tt_top1\.branch\[0\]\.col_um\[2\]\.um_top_I\.iw\[6\]
*832 tt_top1\.branch\[0\]\.col_um\[2\]\.um_top_I\.iw\[7\]
*833 tt_top1\.branch\[0\]\.col_um\[2\]\.um_top_I\.iw\[8\]
*834 tt_top1\.branch\[0\]\.col_um\[2\]\.um_top_I\.iw\[9\]
*835 tt_top1\.branch\[0\]\.col_um\[2\]\.um_top_I\.k_zero
*836 tt_top1\.branch\[0\]\.col_um\[2\]\.um_top_I\.ow\[0\]
*837 tt_top1\.branch\[0\]\.col_um\[2\]\.um_top_I\.ow\[10\]
*838 tt_top1\.branch\[0\]\.col_um\[2\]\.um_top_I\.ow\[11\]
*839 tt_top1\.branch\[0\]\.col_um\[2\]\.um_top_I\.ow\[12\]
*840 tt_top1\.branch\[0\]\.col_um\[2\]\.um_top_I\.ow\[13\]
*841 tt_top1\.branch\[0\]\.col_um\[2\]\.um_top_I\.ow\[14\]
*842 tt_top1\.branch\[0\]\.col_um\[2\]\.um_top_I\.ow\[15\]
*843 tt_top1\.branch\[0\]\.col_um\[2\]\.um_top_I\.ow\[16\]
*844 tt_top1\.branch\[0\]\.col_um\[2\]\.um_top_I\.ow\[17\]
*845 tt_top1\.branch\[0\]\.col_um\[2\]\.um_top_I\.ow\[18\]
*846 tt_top1\.branch\[0\]\.col_um\[2\]\.um_top_I\.ow\[19\]
*847 tt_top1\.branch\[0\]\.col_um\[2\]\.um_top_I\.ow\[1\]
*848 tt_top1\.branch\[0\]\.col_um\[2\]\.um_top_I\.ow\[20\]
*849 tt_top1\.branch\[0\]\.col_um\[2\]\.um_top_I\.ow\[21\]
*850 tt_top1\.branch\[0\]\.col_um\[2\]\.um_top_I\.ow\[22\]
*851 tt_top1\.branch\[0\]\.col_um\[2\]\.um_top_I\.ow\[23\]
*852 tt_top1\.branch\[0\]\.col_um\[2\]\.um_top_I\.ow\[2\]
*853 tt_top1\.branch\[0\]\.col_um\[2\]\.um_top_I\.ow\[3\]
*854 tt_top1\.branch\[0\]\.col_um\[2\]\.um_top_I\.ow\[4\]
*855 tt_top1\.branch\[0\]\.col_um\[2\]\.um_top_I\.ow\[5\]
*856 tt_top1\.branch\[0\]\.col_um\[2\]\.um_top_I\.ow\[6\]
*857 tt_top1\.branch\[0\]\.col_um\[2\]\.um_top_I\.ow\[7\]
*858 tt_top1\.branch\[0\]\.col_um\[2\]\.um_top_I\.ow\[8\]
*859 tt_top1\.branch\[0\]\.col_um\[2\]\.um_top_I\.ow\[9\]
*860 tt_top1\.branch\[0\]\.col_um\[3\]\.um_bot_I\.clk
*861 tt_top1\.branch\[0\]\.col_um\[3\]\.um_bot_I\.ena
*862 tt_top1\.branch\[0\]\.col_um\[3\]\.um_bot_I\.iw\[10\]
*863 tt_top1\.branch\[0\]\.col_um\[3\]\.um_bot_I\.iw\[11\]
*864 tt_top1\.branch\[0\]\.col_um\[3\]\.um_bot_I\.iw\[12\]
*865 tt_top1\.branch\[0\]\.col_um\[3\]\.um_bot_I\.iw\[13\]
*866 tt_top1\.branch\[0\]\.col_um\[3\]\.um_bot_I\.iw\[14\]
*867 tt_top1\.branch\[0\]\.col_um\[3\]\.um_bot_I\.iw\[15\]
*868 tt_top1\.branch\[0\]\.col_um\[3\]\.um_bot_I\.iw\[16\]
*869 tt_top1\.branch\[0\]\.col_um\[3\]\.um_bot_I\.iw\[17\]
*870 tt_top1\.branch\[0\]\.col_um\[3\]\.um_bot_I\.iw\[1\]
*871 tt_top1\.branch\[0\]\.col_um\[3\]\.um_bot_I\.iw\[2\]
*872 tt_top1\.branch\[0\]\.col_um\[3\]\.um_bot_I\.iw\[3\]
*873 tt_top1\.branch\[0\]\.col_um\[3\]\.um_bot_I\.iw\[4\]
*874 tt_top1\.branch\[0\]\.col_um\[3\]\.um_bot_I\.iw\[5\]
*875 tt_top1\.branch\[0\]\.col_um\[3\]\.um_bot_I\.iw\[6\]
*876 tt_top1\.branch\[0\]\.col_um\[3\]\.um_bot_I\.iw\[7\]
*877 tt_top1\.branch\[0\]\.col_um\[3\]\.um_bot_I\.iw\[8\]
*878 tt_top1\.branch\[0\]\.col_um\[3\]\.um_bot_I\.iw\[9\]
*879 tt_top1\.branch\[0\]\.col_um\[3\]\.um_bot_I\.k_zero
*880 tt_top1\.branch\[0\]\.col_um\[3\]\.um_bot_I\.ow\[0\]
*881 tt_top1\.branch\[0\]\.col_um\[3\]\.um_bot_I\.ow\[10\]
*882 tt_top1\.branch\[0\]\.col_um\[3\]\.um_bot_I\.ow\[11\]
*883 tt_top1\.branch\[0\]\.col_um\[3\]\.um_bot_I\.ow\[12\]
*884 tt_top1\.branch\[0\]\.col_um\[3\]\.um_bot_I\.ow\[13\]
*885 tt_top1\.branch\[0\]\.col_um\[3\]\.um_bot_I\.ow\[14\]
*886 tt_top1\.branch\[0\]\.col_um\[3\]\.um_bot_I\.ow\[15\]
*887 tt_top1\.branch\[0\]\.col_um\[3\]\.um_bot_I\.ow\[16\]
*888 tt_top1\.branch\[0\]\.col_um\[3\]\.um_bot_I\.ow\[17\]
*889 tt_top1\.branch\[0\]\.col_um\[3\]\.um_bot_I\.ow\[18\]
*890 tt_top1\.branch\[0\]\.col_um\[3\]\.um_bot_I\.ow\[19\]
*891 tt_top1\.branch\[0\]\.col_um\[3\]\.um_bot_I\.ow\[1\]
*892 tt_top1\.branch\[0\]\.col_um\[3\]\.um_bot_I\.ow\[20\]
*893 tt_top1\.branch\[0\]\.col_um\[3\]\.um_bot_I\.ow\[21\]
*894 tt_top1\.branch\[0\]\.col_um\[3\]\.um_bot_I\.ow\[22\]
*895 tt_top1\.branch\[0\]\.col_um\[3\]\.um_bot_I\.ow\[23\]
*896 tt_top1\.branch\[0\]\.col_um\[3\]\.um_bot_I\.ow\[2\]
*897 tt_top1\.branch\[0\]\.col_um\[3\]\.um_bot_I\.ow\[3\]
*898 tt_top1\.branch\[0\]\.col_um\[3\]\.um_bot_I\.ow\[4\]
*899 tt_top1\.branch\[0\]\.col_um\[3\]\.um_bot_I\.ow\[5\]
*900 tt_top1\.branch\[0\]\.col_um\[3\]\.um_bot_I\.ow\[6\]
*901 tt_top1\.branch\[0\]\.col_um\[3\]\.um_bot_I\.ow\[7\]
*902 tt_top1\.branch\[0\]\.col_um\[3\]\.um_bot_I\.ow\[8\]
*903 tt_top1\.branch\[0\]\.col_um\[3\]\.um_bot_I\.ow\[9\]
*904 tt_top1\.branch\[0\]\.col_um\[3\]\.um_top_I\.clk
*905 tt_top1\.branch\[0\]\.col_um\[3\]\.um_top_I\.ena
*906 tt_top1\.branch\[0\]\.col_um\[3\]\.um_top_I\.iw\[10\]
*907 tt_top1\.branch\[0\]\.col_um\[3\]\.um_top_I\.iw\[11\]
*908 tt_top1\.branch\[0\]\.col_um\[3\]\.um_top_I\.iw\[12\]
*909 tt_top1\.branch\[0\]\.col_um\[3\]\.um_top_I\.iw\[13\]
*910 tt_top1\.branch\[0\]\.col_um\[3\]\.um_top_I\.iw\[14\]
*911 tt_top1\.branch\[0\]\.col_um\[3\]\.um_top_I\.iw\[15\]
*912 tt_top1\.branch\[0\]\.col_um\[3\]\.um_top_I\.iw\[16\]
*913 tt_top1\.branch\[0\]\.col_um\[3\]\.um_top_I\.iw\[17\]
*914 tt_top1\.branch\[0\]\.col_um\[3\]\.um_top_I\.iw\[1\]
*915 tt_top1\.branch\[0\]\.col_um\[3\]\.um_top_I\.iw\[2\]
*916 tt_top1\.branch\[0\]\.col_um\[3\]\.um_top_I\.iw\[3\]